                                  MODFLOW-NWT      
      U.S. GEOLOGICAL SURVEY MODULAR FINITE-DIFFERENCE GROUNDWATER-FLOW MODEL
                            VERSION 1.0.5 05/14/2012
                    BASED ON MODFLOW-2005 VERSION 1.9.01 05/01/2012

 LIST FILE: mf_1000.lst
                         UNIT 5011

 OPENING mf_1000.cbc
 FILE TYPE:DATA(BINARY)   UNIT 5009   STATUS:UNKNOWN
 FORMAT:BINARY                 ACCESS:SEQUENTIAL          

 OPENING mf_1000.dis
 FILE TYPE:DIS   UNIT 5012   STATUS:OLD    
 FORMAT:FORMATTED              ACCESS:SEQUENTIAL          

 OPENING mf_1000.bas
 FILE TYPE:BAS6   UNIT 5013   STATUS:OLD    
 FORMAT:FORMATTED              ACCESS:SEQUENTIAL          

 OPENING mf_1000.oc
 FILE TYPE:OC   UNIT 5039   STATUS:OLD    
 FORMAT:FORMATTED              ACCESS:SEQUENTIAL          

 OPENING mf_1000.fhd
 FILE TYPE:DATA   UNIT 5037   STATUS:UNKNOWN
 FORMAT:FORMATTED              ACCESS:SEQUENTIAL          

 OPENING mf_1000.fdn
 FILE TYPE:DATA   UNIT 5038   STATUS:UNKNOWN
 FORMAT:FORMATTED              ACCESS:SEQUENTIAL          

 OPENING mf_1000.nwt
 FILE TYPE:NWT   UNIT 5133   STATUS:OLD    
 FORMAT:FORMATTED              ACCESS:SEQUENTIAL          

 OPENING mf_1000.upw
 FILE TYPE:UPW   UNIT 5134   STATUS:OLD    
 FORMAT:FORMATTED              ACCESS:SEQUENTIAL          

 OPENING mf_1000.riv
 FILE TYPE:RIV   UNIT 5021   STATUS:OLD    
 FORMAT:FORMATTED              ACCESS:SEQUENTIAL          

 OPENING mf_1000.rch
 FILE TYPE:RCH   UNIT 5024   STATUS:OLD    
 FORMAT:FORMATTED              ACCESS:SEQUENTIAL          
# EVT     5025    mf_1000.evt OLD                                                                                                                                                                                                                                                                           

 OPENING mf_1000.zon
 FILE TYPE:ZONE   UNIT 5015   STATUS:OLD    
 FORMAT:FORMATTED              ACCESS:SEQUENTIAL          

 OPENING mf_1000.pval
 FILE TYPE:PVAL   UNIT 5052   STATUS:OLD    
 FORMAT:FORMATTED              ACCESS:SEQUENTIAL          

 BAS -- BASIC PACKAGE, VERSION 7, 5/2/2005 INPUT READ FROM UNIT 5013
 
 MODFLOW was compiled using mixed precision
 Precision of REAL variables:           6
 Precision of DOUBLE PRECISION variables:          15

 DISCRETIZATION INPUT DATA READ FROM UNIT 5012
 # Discretization File created on 2/4/2022 by ModelMuse version 4.3.0.0.
 # MODFLOW model 300 meter grid for SWAT model
 # Upper left corner: (-169181.134199999, 952625.5168)
 # Lower left corner: (-169181.134199999, 929625.5168)
 # Upper right corner: (-129181.134199999, 952625.5168)
 # Lower right corner: (-129181.134199999, 929625.5168)
 # Grid angle (in degrees counterclockwise): 0
    1 LAYERS        23 ROWS        40 COLUMNS
    1 STRESS PERIOD(S) IN SIMULATION
 MODEL TIME UNIT IS DAYS
 MODEL LENGTH UNIT IS METERS
  Confining bed flag for each layer:
   0

                     DELR =   1000.00    

                     DELC =   1000.00    



           TOP ELEVATION OF LAYER 1
 READING ON UNIT 5012 WITH FORMAT: (FREE)              

            1           2           3           4           5           6           7           8           9          10
           11          12          13          14          15          16          17          18          19          20
           21          22          23          24          25          26          27          28          29          30
           31          32          33          34          35          36          37          38          39          40
 ........................................................................................................................
   1    361.0       352.8       345.2       341.3       334.2       329.4       328.5       328.2       329.2       327.2    
        313.6       309.1       304.6       300.2       296.0       292.3       289.0       286.5       284.9       284.2    
        284.7       286.5       289.7       290.7       285.0       279.6       281.4       288.2       285.5       275.8    
        262.1       247.5       235.0       228.3       231.9       233.9       234.7       236.0       239.5       245.1    
   2    363.6       350.0       344.4       338.2       325.8       317.7       308.8       315.0       314.4       319.6    
        319.6       315.4       310.6       309.8       312.4       311.6       304.4       294.2       285.8       287.0    
        293.2       273.4       276.0       275.6       270.9       268.9       276.4       281.3       277.2       267.3    
        254.6       242.0       232.6       231.6       233.7       233.8       233.8       235.1       239.4       242.2    
   3    361.6       352.1       341.2       336.5       327.2       335.4       327.4       312.9       297.6       303.4    
        299.7       303.0       300.7       297.3       296.5       301.9       297.2       290.5       281.2       282.0    
        272.2       273.1       263.3       268.2       268.6       260.8       271.5       274.3       269.4       259.7    
        248.3       238.2       232.3       233.9       233.8       232.7       232.2       234.0       237.6       237.7    
   4    361.3       357.1       346.4       338.7       339.2       329.5       321.9       319.7       316.3       293.6    
        276.0       292.1       297.1       280.9       291.0       293.8       287.6       279.2       269.1       266.5    
        263.0       258.3       254.4       255.7       252.1       249.7       260.9       260.6       262.1       253.1    
        243.4       236.1       234.6       234.5       232.7       230.7       230.3       232.9       233.8       232.0    
   5    360.6       356.5       352.5       355.2       348.9       342.3       330.4       323.9       306.7       313.5    
        307.5       272.4       277.5       257.4       261.6       264.0       275.5       259.2       270.2       254.7    
        252.4       247.0       236.0       233.9       233.5       239.4       245.7       255.9       252.8       244.3    
        239.9       235.9       235.7       233.5       230.4       228.2       228.3       230.0       228.7       225.8    
   6    359.7       355.6       351.8       349.1       347.9       343.5       332.4       328.6       324.7       317.9    
        303.1       307.9       306.5       296.9       285.4       258.5       279.8       280.9       280.6       283.2    
        276.7       269.2       255.3       240.5       242.6       219.5       236.4       237.4       236.2       229.7    
        233.0       234.3       233.8       231.2       227.4       225.3       226.1       225.3       223.0       220.2    
   7    358.7       354.6       350.8       347.1       348.1       344.7       342.5       335.7       322.4       315.6    
        316.9       317.3       303.1       290.9       276.1       284.7       295.1       294.1       289.8       279.8    
        271.1       259.4       257.8       261.5       252.3       242.5       225.5       212.2       228.2       226.1    
        220.5       230.4       228.0       228.5       224.1       222.3       222.0       220.2       217.9       215.1    
   8    357.4       353.4       349.6       346.0       342.6       345.0       339.1       340.7       328.7       323.8    
        310.0       300.8       300.8       273.8       297.8       303.0       295.6       286.8       283.9       279.2    
        271.0       265.1       274.5       268.4       253.8       243.7       236.8       230.2       209.1       204.5    
        206.7       220.5       216.0       218.7       220.1       219.7       217.4       215.6       213.3       209.2    
   9    356.0       352.1       348.3       344.7       341.3       338.1       334.5       335.8       334.7       327.3    
        317.4       313.8       296.6       301.4       305.0       305.1       292.0       281.7       279.6       274.6    
        272.7       278.0       273.3       263.2       261.1       261.6       253.0       240.8       230.4       222.6    
        197.8       213.0       206.4       202.0       213.4       208.8       214.6       211.5       208.5       204.8    
  10    354.4       350.5       346.8       343.2       339.9       337.0       335.3       328.9       324.1       323.5    
        319.3       307.7       300.4       316.5       313.9       304.9       293.1       292.7       289.3       287.3    
        285.9       276.9       272.7       268.2       255.8       246.4       242.0       240.2       226.4       214.6    
        215.2       198.4       195.7       189.1       199.7       204.7       210.2       207.7       204.9       207.4    
  11    352.6       348.7       345.0       341.6       338.1       340.8       339.7       334.6       324.7       317.8    
        314.6       312.9       311.3       322.2       314.2       303.1       295.5       299.2       286.0       285.0    
        276.7       269.0       261.5       258.4       256.5       257.1       247.0       229.6       224.6       230.4    
        222.4       215.3       207.6       204.9       189.1       195.4       201.6       202.3       201.8       202.7    
  12    350.6       346.8       343.2       338.8       345.0       348.5       348.1       342.6       330.3       320.1    
        325.0       323.4       324.2       320.3       309.7       303.0       294.8       293.6       289.8       272.3    
        266.0       256.6       247.6       242.2       237.8       239.2       235.6       233.0       240.8       226.5    
        216.0       221.4       213.5       199.8       198.9       184.6       193.5       193.9       194.6       197.2    
  13    348.5       344.7       339.0       348.0       356.2       360.3       360.3       347.7       336.0       325.5    
        316.0       330.2       321.4       316.8       315.1       307.6       305.9       289.7       283.4       273.3    
        265.3       268.4       266.2       268.2       249.1       251.1       243.5       249.8       241.4       224.0    
        227.4       223.3       210.3       206.7       201.0       194.6       183.8       184.7       183.2       190.3    
  14    345.8       338.8       349.7       362.5       371.4       376.1       365.5       353.1       342.0       331.9    
        322.8       314.5       310.6       322.7       304.8       303.6       299.7       287.3       279.1       272.6    
        269.0       280.7       271.8       265.6       261.8       265.0       247.9       251.2       240.0       225.8    
        235.2       225.0       211.8       222.3       212.8       206.5       190.0       176.9       175.0       177.2    
  15    338.2       350.2       367.7       381.1       390.6       383.6       370.5       358.7       348.1       338.4    
        329.6       321.6       314.2       307.4       312.8       304.2       291.6       286.1       285.8       281.8    
        285.8       277.4       266.4       262.0       258.1       259.3       257.3       248.1       234.1       234.4    
        237.0       230.0       211.2       225.8       218.4       198.9       193.4       194.7       175.1       169.8    
  16    349.5       371.6       389.7       403.7       403.1       388.2       375.8       364.5       354.2       344.9    
        336.4       328.5       321.3       314.6       308.3       305.0       306.1       301.4       288.6       283.5    
        282.9       270.1       267.3       265.8       253.4       247.6       243.5       239.7       233.2       247.1    
        236.6       223.5       218.7       224.3       213.1       216.3       207.3       190.4       198.2       184.3    
  17    374.2       397.0       415.7       423.2       406.2       393.1       381.2       370.4       360.5       351.4    
        343.1       335.4       328.3       321.6       315.3       309.4       303.7       292.6       300.6       291.1    
        281.2       273.5       276.3       263.7       260.6       250.7       249.6       241.3       250.9       245.7    
        239.4       230.2       228.1       230.1       225.8       215.9       204.9       190.0       202.9       188.5    
  18    403.0       426.4       442.0       424.5       410.7       398.1       386.7       376.3       366.7       357.9    
        349.7       342.2       335.1       328.4       322.1       316.1       310.3       304.7       296.6       294.8    
        286.6       281.3       273.8       264.3       262.5       260.1       254.3       251.5       249.2       243.8    
        238.4       226.2       232.5       226.6       221.0       213.1       202.5       207.9       199.4       191.3    
  19    435.8       458.6       444.1       428.6       415.4       403.4       392.4       382.3       373.0       364.3    
        356.3       348.8       341.7       335.0       328.7       322.5       316.6       310.8       305.0       299.1    
        291.4       282.3       276.2       273.1       263.1       262.0       256.3       253.7       245.5       235.6    
        233.2       237.7       230.3       219.5       214.0       213.7       212.4       208.1       201.7       194.2    
  20    472.5       465.9       446.8       432.9       420.3       408.7       398.1       388.2       379.1       370.7    
        362.7       355.2       348.2       341.4       335.0       328.7       322.6       316.5       310.4       304.3    
        297.9       281.4       276.7       273.6       269.0       262.2       259.1       253.2       249.9       245.7    
        241.9       233.4       226.4       229.8       221.2       222.5       215.8       210.6       204.9       197.7    
  21    488.0       465.3       450.8       437.5       425.3       414.1       403.8       394.2       385.2       376.9    
        369.0       361.5       354.4       347.6       341.0       334.6       328.2       321.9       315.5       308.9    
        302.2       295.0       287.4       275.2       269.5       265.9       257.9       256.0       247.7       249.7    
        239.5       234.2       237.4       230.8       226.1       224.1       219.3       213.6       207.8       202.2    
  22    484.8       468.9       455.0       442.2       430.4       419.5       409.4       400.0       391.2       382.9    
        375.1       367.6       360.4       353.5       346.7       340.1       333.5       326.8       320.1       313.1    
        305.8       298.1       289.9       280.9       270.7       262.5       257.0       252.7       252.2       247.2    
        241.3       238.6       236.0       231.0       228.0       228.5       223.6       217.5       210.6       205.2    
  23    487.3       472.7       459.3       447.0       435.6       425.0       415.1       405.8       397.1       388.8    
        381.0       373.4       366.2       359.1       352.1       345.2       338.4       331.4       324.2       316.8    
        309.0       300.6       291.6       281.8       270.7       266.1       262.4       259.3       255.5       248.7    
        244.8       243.6       239.7       234.7       230.7       229.8       228.6       222.2       214.9       206.9    



             MODEL LAYER BOTTOM EL. FOR LAYER   1
 READING ON UNIT 5012 WITH FORMAT: (FREE)              

            1           2           3           4           5           6           7           8           9          10
           11          12          13          14          15          16          17          18          19          20
           21          22          23          24          25          26          27          28          29          30
           31          32          33          34          35          36          37          38          39          40
 ........................................................................................................................
   1    336.2       332.3       329.9       327.0       322.8       319.7       317.0       313.1       310.2       307.4    
        304.2       300.4       297.1       293.1       292.3       287.5       281.3       272.0       272.0       266.2    
        262.8       255.4       253.5       249.5       249.5       240.6       236.7       236.7       229.8       216.1    
        216.1       216.1       206.2       206.2       206.2       206.2       202.2       191.2       191.2       191.2    
   2    335.8       332.1       329.8       326.9       322.7       316.7       307.8       313.0       310.3       307.1    
        303.2       300.3       297.1       292.8       289.5       286.0       281.3       276.6       272.0       266.2    
        262.8       255.4       253.5       249.5       242.7       240.6       236.7       235.0       227.1       216.1    
        216.1       206.2       206.2       206.2       206.2       202.2       195.1       191.2       191.2       191.2    
   3    333.6       332.0       329.6       326.8       322.6       319.7       316.9       311.9       296.6       302.4    
        298.7       300.2       297.0       292.6       289.1       285.5       280.8       276.5       271.8       266.0    
        261.9       257.1       251.7       247.8       242.7       236.7       235.0       229.8       220.5       216.1    
        216.1       206.2       206.2       206.2       202.2       202.2       191.2       191.2       191.2       191.2    
   4    332.8       330.8       329.5       326.6       322.5       319.6       316.9       313.0       310.3       292.6    
        275.0       291.1       297.0       279.9       288.8       285.1       280.2       275.8       268.1       265.4    
        261.5       257.1       251.7       247.6       243.4       236.6       230.9       227.1       220.5       216.1    
        216.1       206.2       206.2       205.5       202.2       195.1       191.2       191.2       191.2       191.2    
   5    329.9       329.9       329.2       326.1       322.5       319.6       317.0       313.1       305.7       307.0    
        303.0       271.4       276.5       256.4       260.6       263.0       274.5       258.2       269.2       253.7    
        251.4       246.0       235.0       232.9       232.5       236.9       231.6       226.9       220.7       216.1    
        212.2       206.2       205.5       202.2       202.2       195.1       191.2       191.2       191.2       191.2    
   6    329.9       329.2       329.2       324.1       322.3       319.6       317.2       313.3       310.4       307.3    
        303.0       299.8       296.4       291.6       284.4       257.5       278.7       274.6       269.9       264.8    
        261.2       257.4       252.3       239.5       241.6       218.5       232.3       227.8       221.8       217.4    
        212.6       206.7       203.1       202.2       195.1       191.2       191.2       191.2       191.2       187.3    
   7    329.2       329.2       326.1       322.3       320.4       319.8       317.3       313.5       310.5       307.5    
        303.1       299.7       296.1       289.9       275.1       283.2       278.1       274.1       269.6       264.6    
        261.0       257.1       252.1       248.0       243.8       237.6       224.5       211.2       222.7       218.5    
        213.8       207.9       203.8       199.9       195.1       191.2       191.2       188.6       187.3       183.4    
   8    329.2       329.2       320.5       320.5       320.5       320.2       317.6       313.7       310.7       307.7    
        303.2       299.5       295.6       272.8       286.6       282.4       277.3       273.5       269.2       264.2    
        260.5       256.5       251.4       247.5       243.6       237.8       233.3       229.1       208.1       203.5    
        205.7       209.2       205.3       201.0       195.3       191.2       188.6       187.3       183.4       175.8    
   9    329.2       320.5       320.5       320.5       319.0       319.0       317.7       313.9       310.9       307.8    
        303.2       299.4       295.4       290.1       286.0       281.9       276.7       272.9       269.1       263.9    
        260.1       256.2       250.9       247.0       243.3       237.7       233.5       229.3       223.5       219.5    
        196.8       210.0       206.0       201.7       195.7       191.3       187.0       183.4       175.8       175.8    
  10    320.5       320.5       319.0       319.0       318.3       318.3       316.7       314.2       311.1       307.9    
        303.1       299.2       295.0       289.5       285.5       281.6       276.3       272.4       268.8       263.6    
        259.5       255.8       250.5       246.5       242.9       237.4       233.3       229.2       223.5       213.6    
        214.2       197.4       194.7       188.1       195.9       191.4       186.5       180.2       175.8       171.6    
  11    319.0       319.0       318.3       318.3       318.3       318.3       314.8       312.9       311.2       308.0    
        303.0       298.9       294.3       288.9       284.9       281.2       275.8       271.9       268.4       263.1    
        259.0       255.2       250.0       246.2       242.3       236.9       232.8       228.8       223.2       219.3    
        215.4       210.3       206.3       202.1       188.1       191.2       185.9       178.9       172.9       171.4    
  12    318.3       318.3       318.3       318.3       318.3       314.8       312.9       312.9       309.8       308.0    
        303.0       298.7       294.3       288.6       284.7       280.8       275.5       271.6       268.0       262.5    
        258.5       254.7       246.6       241.2       236.8       236.4       232.4       228.5       223.1       219.0    
        215.3       210.2       206.2       198.8       195.9       183.6       185.7       178.4       172.5       170.5    
  13    318.3       318.3       318.3       318.3       312.9       312.9       312.9       312.9       308.0       305.3    
        302.7       298.6       287.9       287.9       284.2       280.6       275.3       271.2       267.5       262.0    
        258.0       254.2       249.1       245.2       241.3       235.8       231.9       228.0       222.7       218.7    
        215.0       209.8       205.9       201.8       195.6       190.6       182.8       177.9       171.8       168.6    
  14    318.3       318.3       318.3       312.9       312.9       312.9       312.9       309.8       308.0       302.7    
        302.7       298.6       287.9       287.9       283.3       279.6       274.8       270.7       266.8       261.3    
        257.4       253.6       248.4       244.5       240.6       235.2       231.2       227.3       221.9       218.1    
        214.3       209.2       205.3       201.2       195.1       190.0       184.7       175.9       170.9       166.0    
  15    318.3       318.3       312.9       312.9       312.9       312.9       312.9       308.0       305.3       302.7    
        302.7       298.6       287.9       279.7       279.7       278.4       274.4       270.3       266.3       260.9    
        257.1       253.3       248.3       244.2       240.2       234.6       230.6       226.6       221.4       217.6    
        213.8       208.7       204.8       200.5       194.6       189.5       184.2       176.7       170.4       164.9    
  16    318.3       312.9       312.9       312.9       312.9       312.9       312.9       308.0       302.7       302.7    
        302.7       298.6       279.7       278.0       278.0       278.0       274.8       270.0       266.0       260.8    
        256.9       253.2       248.0       243.9       239.8       234.1       230.1       226.1       220.9       217.2    
        213.3       208.2       204.2       199.8       194.0       188.9       183.9       176.2       170.3       164.9    
  17    312.9       312.9       312.9       312.9       312.9       312.9       308.0       305.3       302.7       302.7    
        302.7       278.0       278.0       278.0       278.0       275.4       270.8       268.2       266.2       260.3    
        256.6       252.9       247.6       243.4       239.3       233.7       229.6       225.7       220.7       216.9    
        213.0       207.7       203.6       199.1       193.3       188.3       183.4       175.9       172.6       170.6    
  18    312.9       312.9       312.9       312.9       312.9       312.9       308.0       302.7       302.7       302.7    
        278.0       278.0       278.0       278.0       278.0       275.4       268.2       268.2       266.2       259.0    
        256.5       252.6       247.3       243.2       239.1       233.5       229.5       225.6       220.7       216.9    
        213.0       207.5       203.3       198.9       192.9       187.8       183.2       176.3       174.1       174.1    
  19    312.9       312.9       312.9       312.9       312.9       312.9       305.3       302.7       302.7       302.7    
        278.0       278.0       278.0       278.0       275.4       268.2       268.2       268.2       259.0       257.5    
        255.9       252.1       247.1       243.1       238.9       233.3       229.4       225.6       220.7       216.9    
        213.0       207.4       203.1       198.8       192.6       187.7       183.0       178.0       176.3       176.3    
  20    312.9       312.9       312.9       312.9       312.9       308.0       302.7       302.7       302.7       278.0    
        278.0       278.0       278.0       278.0       275.4       268.2       268.2       259.0       257.5       255.9    
        252.1       247.9       245.3       242.9       238.8       233.3       229.4       225.6       220.7       216.9    
        213.0       207.3       203.1       198.8       192.8       189.8       183.2       180.2       180.2       176.3    
  21    312.9       312.9       312.9       312.9       312.9       305.3       302.7       302.7       302.7       278.0    
        278.0       278.0       278.0       275.4       268.2       268.2       268.2       257.5       255.9       255.9    
        252.1       245.3       244.0       242.8       238.9       233.5       229.6       225.7       220.7       217.0    
        213.0       207.4       203.4       198.9       193.3       191.7       189.8       180.2       180.2       180.2    
  22    312.9       312.9       312.9       312.9       308.0       302.7       302.7       302.7       278.0       278.0    
        278.0       278.0       278.0       275.4       268.2       268.2       257.5       255.9       255.9       255.9    
        244.0       244.0       242.7       241.1       239.1       233.6       229.8       225.9       220.8       217.0    
        213.1       207.6       205.5       202.0       193.3       193.3       191.7       180.2       180.2       180.2    
  23    312.9       312.9       312.9       312.9       305.3       302.7       302.7       278.0       278.0       278.0    
        278.0       278.0       275.4       268.2       268.2       268.2       255.9       255.9       255.9       244.0    
        244.0       242.7       241.1       238.9       236.0       233.8       229.9       226.8       220.7       217.0    
        213.3       212.4       205.5       205.5       193.3       193.3       193.3       191.7       180.2       180.2    


 STRESS PERIOD     LENGTH       TIME STEPS     MULTIPLIER FOR DELT    SS FLAG
 ----------------------------------------------------------------------------
        1         10000.00      10000                    1.000         TR

 TRANSIENT SIMULATION



 
 # MODFLOW model 300 meter grid for SWAT model                                   
 # Basic Package file created on 2/4/2022 by ModelMuse version 4.3.0.0.          
 # Number of active cells = 710.
 THE FREE FORMAT OPTION HAS BEEN SELECTED
 THE PRINTTIME OPTION HAS BEEN SELECTED
 CALCULATE FLOW BETWEEN ADJACENT CONSTANT-HEAD CELLS



                     BOUNDARY ARRAY FOR LAYER   1
 READING ON UNIT 5013 WITH FORMAT: (FREE)              

          1     2     3     4     5     6     7     8     9    10    11    12    13    14    15    16    17    18    19    20
         21    22    23    24    25    26    27    28    29    30    31    32    33    34    35    36    37    38    39    40
 ............................................................................................................................
   1      1     1     1     1     1     1     1     1     1     1     1     1     1     1     1     1     1     1     1     1
          1     1     1     1     1     1     1     0     0     0     0     0     0     0     0     0     0     0     0     0
   2      1     1     1     1     1     1     1     1     1     1     1     1     1     1     1     1     1     1     1     1
          1     1     1     1     1     1     1     1     1     1     1     1     0     0     0     0     0     0     0     0
   3      1     1     1     1     1     1     1     1     1     1     1     1     1     1     1     1     1     1     1     1
          1     1     1     1     1     1     1     1     1     1     1     1     1     0     0     0     0     0     0     0
   4      1     1     1     1     1     1     1     1     1     1     1     1     1     1     1     1     1     1     1     1
          1     1     1     1     1     1     1     1     1     1     1     1     1     1     0     0     0     0     0     0
   5      1     1     1     1     1     1     1     1     1     1     1     1     1     1     1     1     1     1     1     1
          1     1     1     1     1     1     1     1     1     1     1     1     1     1     1     1     0     0     0     0
   6      1     1     1     1     1     1     1     1     1     1     1     1     1     1     1     1     1     1     1     1
          1     1     1     1     1     1     1     1     1     1     1     1     1     1     1     1     1     0     0     0
   7      1     1     1     1     1     1     1     1     1     1     1     1     1     1     1     1     1     1     1     1
          1     1     1     1     1     1     1     1     1     1     1     1     1     1     1     1     1     1     0     0
   8      1     1     1     1     1     1     1     1     1     1     1     1     1     1     1     1     1     1     1     1
          1     1     1     1     1     1     1     1     1     1     1     1     1     1     1     1     1     1     1     0
   9      0     1     1     1     1     1     1     1     1     1     1     1     1     1     1     1     1     1     1     1
          1     1     1     1     1     1     1     1     1     1     1     1     1     1     1     1     1     1     1     1
  10      0     0     0     1     1     1     1     1     1     1     1     1     1     1     1     1     1     1     1     1
          1     1     1     1     1     1     1     1     1     1     1     1     1     1     1     1     1     1     1     1
  11      0     0     0     0     1     1     1     1     1     1     1     1     1     1     1     1     1     1     1     1
          1     1     1     1     1     1     1     1     1     1     1     1     1     1     1     1     1     1     1     1
  12      0     0     0     0     0     0     1     1     1     1     1     1     1     1     1     1     1     1     1     1
          1     1     1     1     1     1     1     1     1     1     1     1     1     1     1     1     1     1     1     1
  13      0     0     0     0     0     0     0     1     1     1     1     1     1     1     1     1     1     1     1     1
          1     1     1     1     1     1     1     1     1     1     1     1     1     1     1     1     1     1     1     1
  14      0     0     0     0     0     0     0     0     0     1     1     1     1     1     1     1     1     1     1     1
          1     1     1     1     1     1     1     1     1     1     1     1     1     1     1     1     1     1     1     1
  15      0     0     0     0     0     0     0     0     0     0     1     1     1     1     1     1     1     1     1     1
          1     1     1     1     1     1     1     1     1     1     1     1     1     1     1     1     1     1     1     1
  16      0     0     0     0     0     0     0     0     0     0     0     1     1     1     1     1     1     1     1     1
          1     1     1     1     1     1     1     1     1     1     1     1     1     1     1     1     1     1     1     1
  17      0     0     0     0     0     0     0     0     0     0     0     0     0     1     1     1     1     1     1     1
          1     1     1     1     1     1     1     1     1     1     1     1     1     1     1     1     1     1     1     1
  18      0     0     0     0     0     0     0     0     0     0     0     0     0     1     1     1     1     1     1     1
          1     1     1     1     1     1     1     1     1     1     1     1     1     1     1     1     1     1     1     1
  19      0     0     0     0     0     0     0     0     0     0     0     0     0     0     1     1     1     1     1     1
          1     1     1     1     1     1     1     1     1     1     1     1     1     1     1     1     1     1     1     1
  20      0     0     0     0     0     0     0     0     0     0     0     0     0     0     0     0     1     1     1     1
          1     1     1     1     1     1     1     1     1     1     1     1     1     1     1     1     1     1     1     1
  21      0     0     0     0     0     0     0     0     0     0     0     0     0     0     0     0     0     1     1     1
          1     1     1     1     1     1     1     1     1     1     1     1     1     1     1     1     1     1     1     1
  22      0     0     0     0     0     0     0     0     0     0     0     0     0     0     0     0     0     0     0     1
          1     1     1     1     1     1     1     1     1     1     1     1     1     1     1     1     1     1     1     0
  23      0     0     0     0     0     0     0     0     0     0     0     0     0     0     0     0     0     0     0     0
          0     1     1     1     1     1     1     1     1     1     1     1     1     1     1     1     1     1     1     0

 AQUIFER HEAD WILL BE SET TO -2.00000E+20 AT ALL NO-FLOW NODES (IBOUND=0).



                       INITIAL HEAD FOR LAYER   1
 READING ON UNIT 5013 WITH FORMAT: (FREE)              

            1           2           3           4           5           6           7           8           9          10
           11          12          13          14          15          16          17          18          19          20
           21          22          23          24          25          26          27          28          29          30
           31          32          33          34          35          36          37          38          39          40
 ........................................................................................................................
   1    360.0       351.8       344.2       340.3       333.2       328.4       327.5       327.2       328.2       326.2    
        312.6       308.1       303.6       299.2       295.0       291.3       288.0       285.5       283.9       283.2    
        283.7       285.5       288.7       289.7       284.0       278.6       280.4       287.2       284.5       274.8    
        261.1       246.5       234.0       227.3       230.9       232.9       233.7       235.0       238.5       244.1    
   2    362.6       349.0       343.4       337.2       324.8       316.7       307.8       314.0       313.4       318.6    
        318.6       314.4       309.6       308.8       311.4       310.6       303.4       293.2       284.8       286.0    
        292.2       272.4       275.0       274.6       269.9       267.9       275.4       280.3       276.2       266.3    
        253.6       241.0       231.6       230.6       232.7       232.8       232.8       234.1       238.4       241.2    
   3    360.6       351.1       340.2       335.5       326.2       334.4       326.4       311.9       296.6       302.4    
        298.7       302.0       299.7       296.3       295.5       300.9       296.2       289.5       280.2       281.0    
        271.2       272.1       262.3       267.2       267.6       259.8       270.5       273.3       268.4       258.7    
        247.3       237.2       231.3       232.9       232.8       231.7       231.2       233.0       236.6       236.7    
   4    360.3       356.1       345.4       337.7       338.2       328.5       320.9       318.7       315.3       292.6    
        275.0       291.1       296.1       279.9       290.0       292.8       286.6       278.2       268.1       265.5    
        262.0       257.3       253.4       254.7       251.1       248.7       259.9       259.6       261.1       252.1    
        242.4       235.1       233.6       233.5       231.7       229.7       229.3       231.9       232.8       231.0    
   5    359.6       355.5       351.5       354.2       347.9       341.3       329.4       322.9       305.7       312.5    
        306.5       271.4       276.5       256.4       260.6       263.0       274.5       258.2       269.2       253.7    
        251.4       246.0       235.0       232.9       232.5       238.4       244.7       254.9       251.8       243.3    
        238.9       234.9       234.7       232.5       229.4       227.2       227.3       229.0       227.7       224.8    
   6    358.7       354.6       350.8       348.1       346.9       342.5       331.4       327.6       323.7       316.9    
        302.1       306.9       305.5       295.9       284.4       257.5       278.8       279.9       279.6       282.2    
        275.7       268.2       254.3       239.5       241.6       218.5       235.4       236.4       235.2       228.7    
        232.0       233.3       232.8       230.2       226.4       224.3       225.1       224.3       222.0       219.2    
   7    357.7       353.6       349.8       346.1       347.1       343.7       341.5       334.7       321.4       314.6    
        315.9       316.3       302.1       289.9       275.1       283.7       294.1       293.1       288.8       278.8    
        270.1       258.4       256.8       260.5       251.3       241.5       224.5       211.2       227.2       225.1    
        219.5       229.4       227.0       227.5       223.1       221.3       221.0       219.2       216.9       214.1    
   8    356.4       352.4       348.6       345.0       341.6       344.0       338.1       339.7       327.7       322.8    
        309.0       299.8       299.8       272.8       296.8       302.0       294.6       285.8       282.9       278.2    
        270.0       264.1       273.5       267.4       252.8       242.7       235.8       229.2       208.1       203.5    
        205.7       219.5       215.0       217.7       219.1       218.7       216.4       214.6       212.3       208.2    
   9    355.0       351.1       347.3       343.7       340.3       337.1       333.5       334.8       333.7       326.3    
        316.4       312.8       295.6       300.4       304.0       304.1       291.0       280.7       278.6       273.6    
        271.7       277.0       272.3       262.2       260.1       260.6       252.0       239.8       229.4       221.6    
        196.8       212.0       205.4       201.0       212.4       207.8       213.6       210.5       207.5       203.8    
  10    353.4       349.5       345.8       342.2       338.9       336.0       334.3       327.9       323.1       322.5    
        318.3       306.7       299.4       315.5       312.9       303.9       292.1       291.7       288.3       286.3    
        284.9       275.9       271.7       267.2       254.8       245.4       241.0       239.2       225.4       213.6    
        214.2       197.4       194.7       188.1       198.7       203.7       209.2       206.7       203.9       206.4    
  11    351.6       347.7       344.0       340.6       337.1       339.8       338.7       333.6       323.7       316.8    
        313.6       311.9       310.3       321.2       313.2       302.1       294.5       298.2       285.0       284.0    
        275.7       268.0       260.5       257.4       255.5       256.1       246.0       228.6       223.6       229.4    
        221.4       214.3       206.6       203.9       188.1       194.4       200.6       201.3       200.8       201.7    
  12    349.6       345.8       342.2       337.8       344.0       347.5       347.1       341.6       329.3       319.1    
        324.0       322.4       323.2       319.3       308.7       302.0       293.8       292.6       288.8       271.3    
        265.0       255.6       246.6       241.2       236.8       238.2       234.6       232.0       239.8       225.5    
        215.0       220.4       212.5       198.8       197.9       183.6       192.5       192.9       193.6       196.2    
  13    347.5       343.7       338.0       347.0       355.2       359.3       359.3       346.7       335.0       324.5    
        315.0       329.2       320.4       315.8       314.1       306.6       304.9       288.7       282.4       272.3    
        264.3       267.4       265.2       267.2       248.1       250.1       242.5       248.8       240.4       223.0    
        226.4       222.3       209.3       205.7       200.0       193.6       182.8       183.7       182.2       189.3    
  14    344.8       337.8       348.7       361.5       370.4       375.1       364.5       352.1       341.0       330.9    
        321.8       313.5       309.6       321.7       303.8       302.6       298.7       286.3       278.1       271.6    
        268.0       279.7       270.8       264.6       260.8       264.0       246.9       250.2       239.0       224.8    
        234.2       224.0       210.8       221.3       211.8       205.5       189.0       175.9       174.0       176.2    
  15    337.2       349.2       366.7       380.1       389.6       382.6       369.5       357.7       347.1       337.4    
        328.6       320.6       313.2       306.4       311.8       303.2       290.6       285.1       284.8       280.8    
        284.8       276.4       265.4       261.0       257.1       258.3       256.3       247.1       233.1       233.4    
        236.0       229.0       210.2       224.8       217.4       197.9       192.4       193.7       174.1       168.8    
  16    348.5       370.6       388.7       402.7       402.1       387.2       374.8       363.5       353.2       343.9    
        335.4       327.5       320.3       313.6       307.3       304.0       305.1       300.4       287.6       282.5    
        281.9       269.1       266.3       264.8       252.4       246.6       242.5       238.7       232.2       246.1    
        235.6       222.5       217.7       223.3       212.1       215.3       206.3       189.4       197.2       183.3    
  17    373.2       396.0       414.7       422.2       405.2       392.1       380.2       369.4       359.5       350.4    
        342.1       334.4       327.3       320.6       314.3       308.4       302.7       291.6       299.6       290.1    
        280.2       272.5       275.3       262.7       259.6       249.7       248.6       240.3       249.9       244.7    
        238.4       229.2       227.1       229.1       224.8       214.9       203.9       189.0       201.9       187.5    
  18    402.0       425.4       441.0       423.5       409.7       397.1       385.7       375.3       365.7       356.9    
        348.7       341.2       334.1       327.4       321.1       315.1       309.3       303.7       295.6       293.8    
        285.6       280.3       272.8       263.3       261.5       259.1       253.3       250.5       248.2       242.8    
        237.4       225.2       231.5       225.6       220.0       212.1       201.5       206.9       198.4       190.3    
  19    434.8       457.6       443.1       427.6       414.4       402.4       391.4       381.3       372.0       363.3    
        355.3       347.8       340.7       334.0       327.7       321.5       315.6       309.8       304.0       298.1    
        290.4       281.3       275.2       272.1       262.1       261.0       255.3       252.7       244.5       234.6    
        232.2       236.7       229.3       218.5       213.0       212.7       211.4       207.1       200.7       193.2    
  20    471.5       464.9       445.8       431.9       419.3       407.7       397.1       387.2       378.1       369.7    
        361.7       354.2       347.2       340.4       334.0       327.7       321.6       315.5       309.4       303.3    
        296.9       280.4       275.7       272.6       268.0       261.2       258.1       252.2       248.9       244.7    
        240.9       232.4       225.4       228.8       220.2       221.5       214.8       209.6       203.9       196.7    
  21    487.0       464.3       449.8       436.5       424.3       413.1       402.8       393.2       384.2       375.9    
        368.0       360.5       353.4       346.6       340.0       333.6       327.2       320.9       314.5       307.9    
        301.2       294.0       286.4       274.2       268.5       264.9       256.9       255.0       246.7       248.7    
        238.5       233.2       236.4       229.8       225.1       223.1       218.3       212.6       206.8       201.2    
  22    483.8       467.9       454.0       441.2       429.4       418.5       408.4       399.0       390.2       381.9    
        374.1       366.6       359.4       352.5       345.7       339.1       332.5       325.8       319.1       312.1    
        304.8       297.1       288.9       279.9       269.7       261.5       256.0       251.7       251.2       246.2    
        240.3       237.6       235.0       230.0       227.0       227.5       222.6       216.5       209.6       204.2    
  23    486.3       471.7       458.3       446.0       434.6       424.0       414.1       404.8       396.1       387.8    
        380.0       372.4       365.2       358.1       351.1       344.2       337.4       330.4       323.2       315.8    
        308.0       299.6       290.6       280.8       269.7       265.1       261.4       258.3       254.5       247.7    
        243.8       242.6       238.7       233.7       229.7       228.8       227.6       221.2       213.9       205.9    
 # Output Control file, modified by QSWATMOD2 plugin version 2.0. - 02/04/22 14:04:21 -
 # Output Control file created on 2/4/2022 by ModelMuse version 4.3.0.0.

 OUTPUT CONTROL IS SPECIFIED ONLY AT TIME STEPS FOR WHICH OUTPUT IS DESIRED
 HEADS WILL BE SAVED WITH FORMAT: (10(1X1PE13.5))     
 SAVED HEADS WILL BE LABELED
 DRAWDOWN WILL BE SAVED WITH FORMAT: (10(1X1PE13.5))     
 SAVED DRAWDOWN WILL BE LABELED
 COMPACT CELL-BY-CELL BUDGET FILES WILL BE WRITTEN
 AUXILIARY DATA WILL BE SAVED IN CELL-BY-CELL BUDGET FILES
 HEAD PRINT FORMAT CODE IS   0    DRAWDOWN PRINT FORMAT CODE IS   0
 HEADS WILL BE SAVED ON UNIT 5037    DRAWDOWNS WILL BE SAVED ON UNIT   38

 ZONE OPTION, INPUT READ FROM UNIT 5015
 # Zone (ZONE) File created on 2/4/2022 by ModelMuse version 4.3.0.0.
     4 ZONE ARRAYS



             ZONE ARRAY: hk01_Z1   
 READING ON UNIT 5015 WITH FORMAT: (FREE)              

          1     2     3     4     5     6     7     8     9    10    11    12    13    14    15    16    17    18    19    20
         21    22    23    24    25    26    27    28    29    30    31    32    33    34    35    36    37    38    39    40
 ............................................................................................................................
   1      1     1     1     1     1     1     1     1     1     1     1     1     1     1     1     1     1     1     1     1
          1     1     1     1     1     1     1     0     0     0     0     0     0     0     0     0     0     0     0     0
   2      1     1     1     1     1     1     1     1     1     1     1     1     1     1     1     1     1     1     1     1
          1     1     1     1     1     1     1     1     1     1     0     0     0     0     0     0     0     0     0     0
   3      1     1     1     1     1     1     1     1     1     1     1     1     1     1     1     1     1     1     1     1
          1     1     1     1     1     1     1     1     1     0     0     0     0     0     0     0     0     0     0     0
   4      1     1     1     1     1     1     1     1     1     1     1     1     1     1     1     1     1     1     1     1
          1     1     1     1     1     1     1     1     0     0     0     0     0     0     0     0     0     0     0     0
   5      1     1     1     1     1     1     1     1     1     1     1     1     1     1     1     1     1     1     1     1
          1     1     1     1     1     1     1     0     0     0     0     0     0     0     0     0     0     0     0     0
   6      1     1     1     1     1     1     1     1     1     1     1     1     1     1     1     1     1     1     1     1
          1     1     1     1     1     1     0     0     0     0     0     0     0     0     0     0     0     0     0     0
   7      1     1     1     1     1     1     1     1     1     1     1     1     1     1     1     1     1     1     1     1
          1     1     1     1     1     0     0     0     0     0     0     0     0     0     0     0     0     0     0     0
   8      1     1     1     1     1     1     1     1     1     1     1     1     1     1     1     1     1     1     1     1
          1     1     1     1     0     0     0     0     0     0     0     0     0     0     0     0     0     0     0     0
   9      0     1     1     1     1     1     1     1     1     1     1     1     1     1     1     1     1     1     1     1
          1     1     1     0     0     0     0     0     0     0     0     0     0     0     0     0     0     0     0     0
  10      0     0     0     1     1     1     1     1     1     1     1     1     1     1     1     1     1     1     1     1
          1     1     0     0     0     0     0     0     0     0     0     0     0     0     0     0     0     0     0     0
  11      0     0     0     0     1     1     1     1     1     1     1     1     1     1     1     1     1     1     1     1
          1     0     0     0     0     0     0     0     0     0     0     0     0     0     0     0     0     0     0     0
  12      0     0     0     0     0     0     1     1     1     1     1     1     1     1     1     1     1     1     1     1
          0     0     0     0     0     0     0     0     0     0     0     0     0     0     0     0     0     0     0     0
  13      0     0     0     0     0     0     0     1     1     1     1     1     1     1     1     1     1     1     1     0
          0     0     0     0     0     0     0     0     0     0     0     0     0     0     0     0     0     0     0     0
  14      0     0     0     0     0     0     0     0     0     1     1     1     1     1     1     1     1     1     0     0
          0     0     0     0     0     0     0     0     0     0     0     0     0     0     0     0     0     0     0     0
  15      0     0     0     0     0     0     0     0     0     0     1     1     1     1     1     1     1     0     0     0
          0     0     0     0     0     0     0     0     0     0     0     0     0     0     0     0     0     0     0     0
  16      0     0     0     0     0     0     0     0     0     0     0     1     1     1     1     1     1     0     0     0
          0     0     0     0     0     0     0     0     0     0     0     0     0     0     0     0     0     0     0     0
  17      0     0     0     0     0     0     0     0     0     0     0     0     0     1     1     1     0     0     0     0
          0     0     0     0     0     0     0     0     0     0     0     0     0     0     0     0     0     0     0     0
  18      0     0     0     0     0     0     0     0     0     0     0     0     0     0     0     0     0     0     0     0
          0     0     0     0     0     0     0     0     0     0     0     0     0     0     0     0     0     0     0     0
  19      0     0     0     0     0     0     0     0     0     0     0     0     0     0     0     0     0     0     0     0
          0     0     0     0     0     0     0     0     0     0     0     0     0     0     0     0     0     0     0     0
  20      0     0     0     0     0     0     0     0     0     0     0     0     0     0     0     0     0     0     0     0
          0     0     0     0     0     0     0     0     0     0     0     0     0     0     0     0     0     0     0     0
  21      0     0     0     0     0     0     0     0     0     0     0     0     0     0     0     0     0     0     0     0
          0     0     0     0     0     0     0     0     0     0     0     0     0     0     0     0     0     0     0     0
  22      0     0     0     0     0     0     0     0     0     0     0     0     0     0     0     0     0     0     0     0
          0     0     0     0     0     0     0     0     0     0     0     0     0     0     0     0     0     0     0     0
  23      0     0     0     0     0     0     0     0     0     0     0     0     0     0     0     0     0     0     0     0
          0     0     0     0     0     0     0     0     0     0     0     0     0     0     0     0     0     0     0     0



             ZONE ARRAY: hk02_Z1   
 READING ON UNIT 5015 WITH FORMAT: (FREE)              

          1     2     3     4     5     6     7     8     9    10    11    12    13    14    15    16    17    18    19    20
         21    22    23    24    25    26    27    28    29    30    31    32    33    34    35    36    37    38    39    40
 ............................................................................................................................
   1      0     0     0     0     0     0     0     0     0     0     0     0     0     0     0     0     0     0     0     0
          0     0     0     0     0     0     0     0     0     0     0     0     0     0     0     0     0     0     0     0
   2      0     0     0     0     0     0     0     0     0     0     0     0     0     0     0     0     0     0     0     0
          0     0     0     0     0     0     0     0     0     1     1     1     0     0     0     0     0     0     0     0
   3      0     0     0     0     0     0     0     0     0     0     0     0     0     0     0     0     0     0     0     0
          0     0     0     0     0     0     0     0     1     1     1     1     1     0     0     0     0     0     0     0
   4      0     0     0     0     0     0     0     0     0     0     0     0     0     0     0     0     0     0     0     0
          0     0     0     0     0     0     0     1     1     1     1     1     1     1     0     0     0     0     0     0
   5      0     0     0     0     0     0     0     0     0     0     0     0     0     0     0     0     0     0     0     0
          0     0     0     0     0     0     1     1     1     1     1     1     1     1     1     1     0     0     0     0
   6      0     0     0     0     0     0     0     0     0     0     0     0     0     0     0     0     0     0     0     0
          0     0     0     0     0     1     1     1     1     1     1     1     1     1     1     1     1     0     0     0
   7      0     0     0     0     0     0     0     0     0     0     0     0     0     0     0     0     0     0     0     0
          0     0     0     0     1     1     1     1     1     1     1     1     1     1     1     1     1     1     0     0
   8      0     0     0     0     0     0     0     0     0     0     0     0     0     0     0     0     0     0     0     0
          0     0     0     1     1     1     1     1     1     1     1     1     1     1     1     1     1     1     1     0
   9      0     0     0     0     0     0     0     0     0     0     0     0     0     0     0     0     0     0     0     0
          0     0     1     1     1     1     1     1     1     1     1     1     1     1     1     1     1     1     1     1
  10      0     0     0     0     0     0     0     0     0     0     0     0     0     0     0     0     0     0     0     0
          0     1     1     1     1     1     1     1     1     1     1     1     1     1     1     1     1     1     1     1
  11      0     0     0     0     0     0     0     0     0     0     0     0     0     0     0     0     0     0     0     0
          1     1     1     1     1     1     1     1     1     1     1     1     1     1     1     1     1     1     1     1
  12      0     0     0     0     0     0     0     0     0     0     0     0     0     0     0     0     0     0     0     1
          1     1     1     1     1     1     1     1     1     1     1     1     1     1     1     1     1     1     1     1
  13      0     0     0     0     0     0     0     0     0     0     0     0     0     0     0     0     0     0     1     1
          1     1     1     1     1     1     1     1     1     1     1     1     1     1     1     1     1     1     1     1
  14      0     0     0     0     0     0     0     0     0     0     0     0     0     0     0     0     0     1     1     1
          1     1     1     1     1     1     1     1     1     1     1     1     1     1     1     1     1     1     1     1
  15      0     0     0     0     0     0     0     0     0     0     0     0     0     0     0     0     1     1     1     1
          1     1     1     1     1     1     1     1     1     1     1     1     1     1     1     1     1     1     1     1
  16      0     0     0     0     0     0     0     0     0     0     0     0     0     0     0     1     1     1     1     1
          1     1     1     1     1     1     1     1     1     1     1     1     1     1     1     1     1     1     1     1
  17      0     0     0     0     0     0     0     0     0     0     0     0     0     0     1     1     1     1     1     1
          1     1     1     1     1     1     1     1     1     1     1     1     1     1     1     1     1     1     1     1
  18      0     0     0     0     0     0     0     0     0     0     0     0     0     1     1     1     1     1     1     1
          1     1     1     1     1     1     1     1     1     1     1     1     1     1     1     1     1     1     1     1
  19      0     0     0     0     0     0     0     0     0     0     0     0     0     0     1     1     1     1     1     1
          1     1     1     1     1     1     1     1     1     1     1     1     1     1     1     1     1     1     1     1
  20      0     0     0     0     0     0     0     0     0     0     0     0     0     0     0     0     1     1     1     1
          1     1     1     1     1     1     1     1     1     1     1     1     1     1     1     1     1     1     1     1
  21      0     0     0     0     0     0     0     0     0     0     0     0     0     0     0     0     0     1     1     1
          1     1     1     1     1     1     1     1     1     1     1     1     1     1     1     1     1     1     1     1
  22      0     0     0     0     0     0     0     0     0     0     0     0     0     0     0     0     0     0     0     1
          1     1     1     1     1     1     1     1     1     1     1     1     1     1     1     1     1     1     1     0
  23      0     0     0     0     0     0     0     0     0     0     0     0     0     0     0     0     0     0     0     0
          0     1     1     1     1     1     1     1     1     1     1     1     1     1     1     1     1     1     1     0



             ZONE ARRAY: sy01_Z1   
 READING ON UNIT 5015 WITH FORMAT: (FREE)              

          1     2     3     4     5     6     7     8     9    10    11    12    13    14    15    16    17    18    19    20
         21    22    23    24    25    26    27    28    29    30    31    32    33    34    35    36    37    38    39    40
 ............................................................................................................................
   1      1     1     1     1     1     1     1     1     1     1     1     1     1     1     1     1     1     1     1     1
          1     1     1     1     1     1     1     0     0     0     0     0     0     0     0     0     0     0     0     0
   2      1     1     1     1     1     1     1     1     1     1     1     1     1     1     1     1     1     1     1     1
          1     1     1     1     1     1     1     1     1     1     0     0     0     0     0     0     0     0     0     0
   3      1     1     1     1     1     1     1     1     1     1     1     1     1     1     1     1     1     1     1     1
          1     1     1     1     1     1     1     1     1     0     0     0     0     0     0     0     0     0     0     0
   4      1     1     1     1     1     1     1     1     1     1     1     1     1     1     1     1     1     1     1     1
          1     1     1     1     1     1     1     1     0     0     0     0     0     0     0     0     0     0     0     0
   5      1     1     1     1     1     1     1     1     1     1     1     1     1     1     1     1     1     1     1     1
          1     1     1     1     1     1     1     0     0     0     0     0     0     0     0     0     0     0     0     0
   6      1     1     1     1     1     1     1     1     1     1     1     1     1     1     1     1     1     1     1     1
          1     1     1     1     1     1     0     0     0     0     0     0     0     0     0     0     0     0     0     0
   7      1     1     1     1     1     1     1     1     1     1     1     1     1     1     1     1     1     1     1     1
          1     1     1     1     1     0     0     0     0     0     0     0     0     0     0     0     0     0     0     0
   8      1     1     1     1     1     1     1     1     1     1     1     1     1     1     1     1     1     1     1     1
          1     1     1     1     0     0     0     0     0     0     0     0     0     0     0     0     0     0     0     0
   9      0     1     1     1     1     1     1     1     1     1     1     1     1     1     1     1     1     1     1     1
          1     1     1     0     0     0     0     0     0     0     0     0     0     0     0     0     0     0     0     0
  10      0     0     0     1     1     1     1     1     1     1     1     1     1     1     1     1     1     1     1     1
          1     1     0     0     0     0     0     0     0     0     0     0     0     0     0     0     0     0     0     0
  11      0     0     0     0     1     1     1     1     1     1     1     1     1     1     1     1     1     1     1     1
          1     0     0     0     0     0     0     0     0     0     0     0     0     0     0     0     0     0     0     0
  12      0     0     0     0     0     0     1     1     1     1     1     1     1     1     1     1     1     1     1     1
          0     0     0     0     0     0     0     0     0     0     0     0     0     0     0     0     0     0     0     0
  13      0     0     0     0     0     0     0     1     1     1     1     1     1     1     1     1     1     1     1     0
          0     0     0     0     0     0     0     0     0     0     0     0     0     0     0     0     0     0     0     0
  14      0     0     0     0     0     0     0     0     0     1     1     1     1     1     1     1     1     1     0     0
          0     0     0     0     0     0     0     0     0     0     0     0     0     0     0     0     0     0     0     0
  15      0     0     0     0     0     0     0     0     0     0     1     1     1     1     1     1     1     0     0     0
          0     0     0     0     0     0     0     0     0     0     0     0     0     0     0     0     0     0     0     0
  16      0     0     0     0     0     0     0     0     0     0     0     1     1     1     1     1     1     0     0     0
          0     0     0     0     0     0     0     0     0     0     0     0     0     0     0     0     0     0     0     0
  17      0     0     0     0     0     0     0     0     0     0     0     0     0     1     1     1     0     0     0     0
          0     0     0     0     0     0     0     0     0     0     0     0     0     0     0     0     0     0     0     0
  18      0     0     0     0     0     0     0     0     0     0     0     0     0     0     0     0     0     0     0     0
          0     0     0     0     0     0     0     0     0     0     0     0     0     0     0     0     0     0     0     0
  19      0     0     0     0     0     0     0     0     0     0     0     0     0     0     0     0     0     0     0     0
          0     0     0     0     0     0     0     0     0     0     0     0     0     0     0     0     0     0     0     0
  20      0     0     0     0     0     0     0     0     0     0     0     0     0     0     0     0     0     0     0     0
          0     0     0     0     0     0     0     0     0     0     0     0     0     0     0     0     0     0     0     0
  21      0     0     0     0     0     0     0     0     0     0     0     0     0     0     0     0     0     0     0     0
          0     0     0     0     0     0     0     0     0     0     0     0     0     0     0     0     0     0     0     0
  22      0     0     0     0     0     0     0     0     0     0     0     0     0     0     0     0     0     0     0     0
          0     0     0     0     0     0     0     0     0     0     0     0     0     0     0     0     0     0     0     0
  23      0     0     0     0     0     0     0     0     0     0     0     0     0     0     0     0     0     0     0     0
          0     0     0     0     0     0     0     0     0     0     0     0     0     0     0     0     0     0     0     0



             ZONE ARRAY: sy02_Z1   
 READING ON UNIT 5015 WITH FORMAT: (FREE)              

          1     2     3     4     5     6     7     8     9    10    11    12    13    14    15    16    17    18    19    20
         21    22    23    24    25    26    27    28    29    30    31    32    33    34    35    36    37    38    39    40
 ............................................................................................................................
   1      0     0     0     0     0     0     0     0     0     0     0     0     0     0     0     0     0     0     0     0
          0     0     0     0     0     0     0     0     0     0     0     0     0     0     0     0     0     0     0     0
   2      0     0     0     0     0     0     0     0     0     0     0     0     0     0     0     0     0     0     0     0
          0     0     0     0     0     0     0     0     0     1     1     1     0     0     0     0     0     0     0     0
   3      0     0     0     0     0     0     0     0     0     0     0     0     0     0     0     0     0     0     0     0
          0     0     0     0     0     0     0     0     1     1     1     1     1     0     0     0     0     0     0     0
   4      0     0     0     0     0     0     0     0     0     0     0     0     0     0     0     0     0     0     0     0
          0     0     0     0     0     0     0     1     1     1     1     1     1     1     0     0     0     0     0     0
   5      0     0     0     0     0     0     0     0     0     0     0     0     0     0     0     0     0     0     0     0
          0     0     0     0     0     0     1     1     1     1     1     1     1     1     1     1     0     0     0     0
   6      0     0     0     0     0     0     0     0     0     0     0     0     0     0     0     0     0     0     0     0
          0     0     0     0     0     1     1     1     1     1     1     1     1     1     1     1     1     0     0     0
   7      0     0     0     0     0     0     0     0     0     0     0     0     0     0     0     0     0     0     0     0
          0     0     0     0     1     1     1     1     1     1     1     1     1     1     1     1     1     1     0     0
   8      0     0     0     0     0     0     0     0     0     0     0     0     0     0     0     0     0     0     0     0
          0     0     0     1     1     1     1     1     1     1     1     1     1     1     1     1     1     1     1     0
   9      0     0     0     0     0     0     0     0     0     0     0     0     0     0     0     0     0     0     0     0
          0     0     1     1     1     1     1     1     1     1     1     1     1     1     1     1     1     1     1     1
  10      0     0     0     0     0     0     0     0     0     0     0     0     0     0     0     0     0     0     0     0
          0     1     1     1     1     1     1     1     1     1     1     1     1     1     1     1     1     1     1     1
  11      0     0     0     0     0     0     0     0     0     0     0     0     0     0     0     0     0     0     0     0
          1     1     1     1     1     1     1     1     1     1     1     1     1     1     1     1     1     1     1     1
  12      0     0     0     0     0     0     0     0     0     0     0     0     0     0     0     0     0     0     0     1
          1     1     1     1     1     1     1     1     1     1     1     1     1     1     1     1     1     1     1     1
  13      0     0     0     0     0     0     0     0     0     0     0     0     0     0     0     0     0     0     1     1
          1     1     1     1     1     1     1     1     1     1     1     1     1     1     1     1     1     1     1     1
  14      0     0     0     0     0     0     0     0     0     0     0     0     0     0     0     0     0     1     1     1
          1     1     1     1     1     1     1     1     1     1     1     1     1     1     1     1     1     1     1     1
  15      0     0     0     0     0     0     0     0     0     0     0     0     0     0     0     0     1     1     1     1
          1     1     1     1     1     1     1     1     1     1     1     1     1     1     1     1     1     1     1     1
  16      0     0     0     0     0     0     0     0     0     0     0     0     0     0     0     1     1     1     1     1
          1     1     1     1     1     1     1     1     1     1     1     1     1     1     1     1     1     1     1     1
  17      0     0     0     0     0     0     0     0     0     0     0     0     0     0     1     1     1     1     1     1
          1     1     1     1     1     1     1     1     1     1     1     1     1     1     1     1     1     1     1     1
  18      0     0     0     0     0     0     0     0     0     0     0     0     0     1     1     1     1     1     1     1
          1     1     1     1     1     1     1     1     1     1     1     1     1     1     1     1     1     1     1     1
  19      0     0     0     0     0     0     0     0     0     0     0     0     0     0     1     1     1     1     1     1
          1     1     1     1     1     1     1     1     1     1     1     1     1     1     1     1     1     1     1     1
  20      0     0     0     0     0     0     0     0     0     0     0     0     0     0     0     0     1     1     1     1
          1     1     1     1     1     1     1     1     1     1     1     1     1     1     1     1     1     1     1     1
  21      0     0     0     0     0     0     0     0     0     0     0     0     0     0     0     0     0     1     1     1
          1     1     1     1     1     1     1     1     1     1     1     1     1     1     1     1     1     1     1     1
  22      0     0     0     0     0     0     0     0     0     0     0     0     0     0     0     0     0     0     0     1
          1     1     1     1     1     1     1     1     1     1     1     1     1     1     1     1     1     1     1     0
  23      0     0     0     0     0     0     0     0     0     0     0     0     0     0     0     0     0     0     0     0
          0     1     1     1     1     1     1     1     1     1     1     1     1     1     1     1     1     1     1     0

 PARAMETER VALUE INPUT FILE,  INPUT READ FROM UNIT 5052
 #pval template file from pyemu

 NUMBER OF PARAMETER VALUES TO BE READ FROM PARAMETER VALUE FILE:    4

 INFORMATION ON PARAMETERS LISTED IN PARAMETER FILE
               VALUE IN
    NAME     PARAMETER FILE
 ----------  --------------
 hk01          1.0000    
 hk02          1.0000    
 sy01         0.10000E-01
 sy02         0.10000E-01
 -----------------------------------------------------------------------------
 FOR THE PARAMETERS LISTED IN THE TABLE ABOVE, PARAMETER VALUES IN INDIVIDUAL
 PACKAGE INPUT FILES ARE REPLACED BY THE VALUES FROM THE PARAMETER INPUT FILE.
 # NWT: Newton Solver file created on 2/4/2022 by ModelMuse version 4.3.0.0.

 NWT1 -- Newton Solver, VERSION 1.0.6, 12/05/2012
         INPUT READ FROM UNIT***

 COMPLEX OPTION:
 DEFAULT SOLVER INPUT VALUES REFLECT STRONGLY NONLINEAR MODEL
 ***XMD linear solver will be used***
 
   CONVERGENCE CRITERION OF   0.100000E+00 FOR HEAD SOLUTION
   AND A TOLERANCE OF   0.100000E+03 FOR FLOW SOLUTION AND 
   A MAXIMUM OF  5000 OUTER ITERATIONS. 


   D-B-D REDUCTION FACTOR OF    0.850000E+00 AND 
   A D-B-D INCREASE FACTOR OF    0.100000E-04 AND 
   A D-B-D RELAXATION OF    0.000000E+00 AND 
   A MOMENTUM FACTOR OF    0.100000E+00 .


   BACKTRACKING IS ACTIVE 
   THE MAXIMUM NUMBER OF BACKTRACKS IS    50 AND 
   THE BACKTRACKING TOLERANCE IS    0.110000E+01 AND
   THE BACKTRACKING REDUCTION FACTOR IS    0.700000E+00

 XMD -- LINEAR SOLUTION BY XMD PACKAGE VERSION 1.30
     BY MOTOMU IBARAKI, OHIO STATE UNIVERSITY, COLOMBUS, OH
                 INPUT READ FROM UNIT***
 ACCELERATION METHOD                    (IACL) =         2
 NODE ORDERING FLAG                   (NORDER) =         1
 LEVEL OF FILL                         (LEVEL) =         5
 MAXIMUM NUMBER OF ORTHOGONALIZATIONS  (NORTH) =         7
 INDEX FOR USING REDUCED SYSTEM      (IREDSYS) =         1
 RESID. REDUCTION CONVERGE CRITERION  (RRCTOL) =  0.000000E+00
 INDEX FOR USING DROP TOLERANCE     (IDROPTOL) =         1
 DROP TOLERANCE VALUE                  (EPSRN) =  0.100000E-04
 CONVERGENCE CRITERIA OF           (HCLOSEXMD) =  0.100000E-04
 MAX. NUMBER OF LINEAR ITERATIONS  (MXITERXMD) =        50


 UPW1 -- UPSTREAM WEIGHTING FLOW PACKAGE, VERSION 1.0.6, 12/05/2012
         INPUT READ FROM UNIT***

 # UPW: Upstream Weighting package file created on 2/4/2022 by ModelMuse version 4.3.0.0.
 CELL-BY-CELL FLOWS WILL BE SAVED ON UNIT    9
     4 Named Parameters     

   LAYER FLAGS:
 LAYER       LAYTYP          LAYAVG    CHANI           LAYVKA           LAYWET
 ---------------------------------------------------------------------------
    1             1             0    -1.000E+00             0             0

   INTERPRETATION OF LAYER FLAGS:
                        INTERBLOCK     HORIZONTAL    DATA IN
         LAYER TYPE   TRANSMISSIVITY   ANISOTROPY   ARRAY VKA   WETTABILITY
 LAYER   (LAYTYP)        (LAYAVG)      (CHANI)     (LAYVKA)       (LAYWET)
 ---------------------------------------------------------------------------
    1   CONVERTIBLE      HARMONIC      VARIABLE    VERTICAL K  NON-WETTABLE

 PARAMETERS DEFINED IN THE NWT PACKAGE

 PARAMETER NAME:hk01         TYPE:HK     CLUSTERS:   1
 Parameter value from package file is:    5.0000    
 This value has been changed to:          1.0000    , as read from
 the Parameter Value file
                LAYER:   1    MULTIPLIER ARRAY: NONE    ZONE ARRAY: hk01_Z1
                ZONE VALUES:    1

 PARAMETER NAME:hk02         TYPE:HK     CLUSTERS:   1
 Parameter value from package file is:    10.000    
 This value has been changed to:          1.0000    , as read from
 the Parameter Value file
                LAYER:   1    MULTIPLIER ARRAY: NONE    ZONE ARRAY: hk02_Z1
                ZONE VALUES:    1

 PARAMETER NAME:sy01         TYPE:SY     CLUSTERS:   1
 Parameter value from package file is:   0.10000    
 This value has been changed to:         1.00000E-02, as read from
 the Parameter Value file
                LAYER:   1    MULTIPLIER ARRAY: NONE    ZONE ARRAY: sy01_Z1
                ZONE VALUES:    1

 PARAMETER NAME:sy02         TYPE:SY     CLUSTERS:   1
 Parameter value from package file is:   0.10000    
 This value has been changed to:         1.00000E-02, as read from
 the Parameter Value file
                LAYER:   1    MULTIPLIER ARRAY: NONE    ZONE ARRAY: sy02_Z1
                ZONE VALUES:    1

    HYD. COND. ALONG ROWS FOR LAYER   1 WILL BE DEFINED BY PARAMETERS
 (PRINT FLAG=  12)

    HYD. COND. ALONG ROWS is defined by the following parameters:
 hk01      
 hk02      


              HYD. COND. ALONG ROWS FOR LAYER   1

            1           2           3           4           5           6           7           8           9          10
           11          12          13          14          15          16          17          18          19          20
           21          22          23          24          25          26          27          28          29          30
           31          32          33          34          35          36          37          38          39          40
 ........................................................................................................................
   1    1.000       1.000       1.000       1.000       1.000       1.000       1.000       1.000       1.000       1.000    
        1.000       1.000       1.000       1.000       1.000       1.000       1.000       1.000       1.000       1.000    
        1.000       1.000       1.000       1.000       1.000       1.000       1.000       0.000       0.000       0.000    
        0.000       0.000       0.000       0.000       0.000       0.000       0.000       0.000       0.000       0.000    
   2    1.000       1.000       1.000       1.000       1.000       1.000       1.000       1.000       1.000       1.000    
        1.000       1.000       1.000       1.000       1.000       1.000       1.000       1.000       1.000       1.000    
        1.000       1.000       1.000       1.000       1.000       1.000       1.000       1.000       1.000       2.000    
        1.000       1.000       0.000       0.000       0.000       0.000       0.000       0.000       0.000       0.000    
   3    1.000       1.000       1.000       1.000       1.000       1.000       1.000       1.000       1.000       1.000    
        1.000       1.000       1.000       1.000       1.000       1.000       1.000       1.000       1.000       1.000    
        1.000       1.000       1.000       1.000       1.000       1.000       1.000       1.000       2.000       1.000    
        1.000       1.000       1.000       0.000       0.000       0.000       0.000       0.000       0.000       0.000    
   4    1.000       1.000       1.000       1.000       1.000       1.000       1.000       1.000       1.000       1.000    
        1.000       1.000       1.000       1.000       1.000       1.000       1.000       1.000       1.000       1.000    
        1.000       1.000       1.000       1.000       1.000       1.000       1.000       2.000       1.000       1.000    
[...]
          0                 3           2            13    4     1       0.4905327573E+00      22   21    1      -0.5053555141E+02      0.7247744081E+02      0.1145111724E+04      0.4905327573E+00
          0                 4           2            13    4     1       0.2452197823E-01      22   21    1      -0.2526779210E+01      0.3619028922E+01      0.7247744081E+02      0.2452197823E-01

    ------------------------------------------------
       NWT REQUIRED            4 OUTER ITERATIONS 
       AND A TOTAL OF          8 INNER ITERATIONS.
    ------------------------------------------------

 OUTPUT CONTROL FOR STRESS PERIOD    1   TIME STEP  361
    SAVE HEAD FOR ALL LAYERS
    SAVE DRAWDOWN FOR ALL LAYERS
    SAVE BUDGET
    PRINT BUDGET
 UBDSV1 SAVING "         STORAGE" ON UNIT   9 AT TIME STEP361, STRESS PERIOD   1
 UBDSV2 SAVING "   CONSTANT HEAD" ON UNIT   9 AT TIME STEP361, STRESS PERIOD   1
 UBDSV1 SAVING "FLOW RIGHT FACE " ON UNIT   9 AT TIME STEP361, STRESS PERIOD   1
 UBDSV1 SAVING "FLOW FRONT FACE " ON UNIT   9 AT TIME STEP361, STRESS PERIOD   1
 UBDSV4 SAVING "   RIVER LEAKAGE" ON UNIT   9 AT TIME STEP361, STRESS PERIOD   1
 UBDSV3 SAVING "        RECHARGE" ON UNIT   9 AT TIME STEP361, STRESS PERIOD   1

 HEAD WILL BE SAVED ON UNIT 5037 AT END OF TIME STEP  361, STRESS PERIOD    1

 DRAWDOWN WILL BE SAVED ON UNIT   38 AT END OF TIME STEP  361, STRESS PERIOD    1
1
  VOLUMETRIC BUDGET FOR ENTIRE MODEL AT END OF TIME STEP  361, STRESS PERIOD   1
  ------------------------------------------------------------------------------

     CUMULATIVE VOLUMES      L**3       RATES FOR THIS TIME STEP      L**3/T
     ------------------                 ------------------------

           IN:                                      IN:
           ---                                      ---
             STORAGE =    17161250.0000               STORAGE =      106542.9219
       CONSTANT HEAD =           0.0000         CONSTANT HEAD =           0.0000
       RIVER LEAKAGE =     2062071.7500         RIVER LEAKAGE =        3864.2947
            RECHARGE =    25538656.0000              RECHARGE =       12961.9795

            TOTAL IN =    44761976.0000              TOTAL IN =      123369.1953

          OUT:                                     OUT:
          ----                                     ----
             STORAGE =    20034156.0000               STORAGE =       44472.8477
       CONSTANT HEAD =           0.0000         CONSTANT HEAD =           0.0000
       RIVER LEAKAGE =    24708918.0000         RIVER LEAKAGE =       78895.5938
            RECHARGE =           0.0000              RECHARGE =           0.0000

           TOTAL OUT =    44743072.0000             TOTAL OUT =      123368.4375

            IN - OUT =       18904.0000              IN - OUT =           0.7578

 PERCENT DISCREPANCY =           0.04     PERCENT DISCREPANCY =           0.00






         TIME SUMMARY AT END OF TIME STEP  361 IN STRESS PERIOD    1
                    SECONDS     MINUTES      HOURS       DAYS        YEARS
                    -----------------------------------------------------------
   TIME STEP LENGTH  86400.      1440.0      24.000      1.0000     2.73785E-03
 STRESS PERIOD TIME 3.11904E+07 5.19840E+05  8664.0      361.00     0.98836    
         TOTAL TIME 3.11904E+07 5.19840E+05  8664.0      361.00     0.98836    
1
 
 SOLVING FOR HEAD 
                                                   Max.-Head-Change                        Max.-Flux-Residual
  Residual-Control   Outer-Iter.   Inner-Iter.     Column Row Layer    Max.-Head-Change    Column Row Layer    Max.-Flux-Residual            L2-New               L2-Old           Solver-Max-Delh
          0                 1           2            11    6     1      -0.6858300906E+02       8    8    1       0.2100964329E+04      0.9441741369E+04      0.3619028922E+01     -0.6858300906E+02
          0                 2           2            11    6     1       0.5923078303E+01      28   14    1       0.1040466834E+04      0.1712220441E+04      0.9441741369E+04      0.5923078303E+01
          0                 3           2            11    6     1       0.2961568825E+00      28   14    1       0.5190400808E+02      0.8558395973E+02      0.1712220441E+04      0.2961568825E+00
          0                 4           2            11    6     1       0.1480503089E-01      28   14    1       0.2594383293E+01      0.4278748260E+01      0.8558395973E+02      0.1480503089E-01

    ------------------------------------------------
       NWT REQUIRED            4 OUTER ITERATIONS 
       AND A TOTAL OF          8 INNER ITERATIONS.
    ------------------------------------------------

 OUTPUT CONTROL FOR STRESS PERIOD    1   TIME STEP  362
    SAVE HEAD FOR ALL LAYERS
    SAVE DRAWDOWN FOR ALL LAYERS
    SAVE BUDGET
    PRINT BUDGET
 UBDSV1 SAVING "         STORAGE" ON UNIT   9 AT TIME STEP362, STRESS PERIOD   1
 UBDSV2 SAVING "   CONSTANT HEAD" ON UNIT   9 AT TIME STEP362, STRESS PERIOD   1
 UBDSV1 SAVING "FLOW RIGHT FACE " ON UNIT   9 AT TIME STEP362, STRESS PERIOD   1
 UBDSV1 SAVING "FLOW FRONT FACE " ON UNIT   9 AT TIME STEP362, STRESS PERIOD   1
 UBDSV4 SAVING "   RIVER LEAKAGE" ON UNIT   9 AT TIME STEP362, STRESS PERIOD   1
 UBDSV3 SAVING "        RECHARGE" ON UNIT   9 AT TIME STEP362, STRESS PERIOD   1

 HEAD WILL BE SAVED ON UNIT 5037 AT END OF TIME STEP  362, STRESS PERIOD    1

 DRAWDOWN WILL BE SAVED ON UNIT   38 AT END OF TIME STEP  362, STRESS PERIOD    1
1
  VOLUMETRIC BUDGET FOR ENTIRE MODEL AT END OF TIME STEP  362, STRESS PERIOD   1
  ------------------------------------------------------------------------------

     CUMULATIVE VOLUMES      L**3       RATES FOR THIS TIME STEP      L**3/T
     ------------------                 ------------------------

           IN:                                      IN:
           ---                                      ---
             STORAGE =    17262486.0000               STORAGE =      101235.2188
       CONSTANT HEAD =           0.0000         CONSTANT HEAD =           0.0000
       RIVER LEAKAGE =     2066071.2500         RIVER LEAKAGE =        3999.4785
            RECHARGE =    25550440.0000              RECHARGE =       11783.0996

            TOTAL IN =    44879000.0000              TOTAL IN =      117017.7969

          OUT:                                     OUT:
          ----                                     ----
             STORAGE =    20075496.0000               STORAGE =       41339.0273
       CONSTANT HEAD =           0.0000         CONSTANT HEAD =           0.0000
       RIVER LEAKAGE =    24784596.0000         RIVER LEAKAGE =       75677.7344
            RECHARGE =           0.0000              RECHARGE =           0.0000

           TOTAL OUT =    44860092.0000             TOTAL OUT =      117016.7656

            IN - OUT =       18908.0000              IN - OUT =           1.0312

 PERCENT DISCREPANCY =           0.04     PERCENT DISCREPANCY =           0.00






         TIME SUMMARY AT END OF TIME STEP  362 IN STRESS PERIOD    1
                    SECONDS     MINUTES      HOURS       DAYS        YEARS
                    -----------------------------------------------------------
   TIME STEP LENGTH  86400.      1440.0      24.000      1.0000     2.73785E-03
 STRESS PERIOD TIME 3.12768E+07 5.21280E+05  8688.0      362.00     0.99110    
         TOTAL TIME 3.12768E+07 5.21280E+05  8688.0      362.00     0.99110    
1
 
 SOLVING FOR HEAD 
                                                   Max.-Head-Change                        Max.-Flux-Residual
  Residual-Control   Outer-Iter.   Inner-Iter.     Column Row Layer    Max.-Head-Change    Column Row Layer    Max.-Flux-Residual            L2-New               L2-Old           Solver-Max-Delh
          0                 1           2            11    6     1      -0.5107711460E+02       8    8    1       0.2049003966E+04      0.9758110248E+04      0.4278748260E+01     -0.5107711460E+02
          1                 1           0            11    6     1      -0.3575397961E+02      28   10    1       0.7924713071E+04      0.1239609078E+05      0.9758110248E+04     -0.5107711460E+02
          0                 2           2            11    6     1      -0.1174773704E+02      28   10    1       0.3917552740E+04      0.6282853515E+04      0.1239609078E+05     -0.1174773704E+02
          0                 3           2            11    6     1       0.1014618174E+01      14    6    1       0.1712152241E+04      0.1751109972E+04      0.6282853515E+04      0.1014618174E+01
          0                 4           2            11    6     1       0.5073140348E-01      14    6    1       0.8527075266E+02      0.8722520299E+02      0.1751109972E+04      0.5073140348E-01

    ------------------------------------------------
       NWT REQUIRED            4 OUTER ITERATIONS 
       AND A TOTAL OF          8 INNER ITERATIONS.
    ------------------------------------------------

 OUTPUT CONTROL FOR STRESS PERIOD    1   TIME STEP  363
    SAVE HEAD FOR ALL LAYERS
    SAVE DRAWDOWN FOR ALL LAYERS
    SAVE BUDGET
    PRINT BUDGET
 UBDSV1 SAVING "         STORAGE" ON UNIT   9 AT TIME STEP363, STRESS PERIOD   1
 UBDSV2 SAVING "   CONSTANT HEAD" ON UNIT   9 AT TIME STEP363, STRESS PERIOD   1
 UBDSV1 SAVING "FLOW RIGHT FACE " ON UNIT   9 AT TIME STEP363, STRESS PERIOD   1
 UBDSV1 SAVING "FLOW FRONT FACE " ON UNIT   9 AT TIME STEP363, STRESS PERIOD   1
 UBDSV4 SAVING "   RIVER LEAKAGE" ON UNIT   9 AT TIME STEP363, STRESS PERIOD   1
 UBDSV3 SAVING "        RECHARGE" ON UNIT   9 AT TIME STEP363, STRESS PERIOD   1

 HEAD WILL BE SAVED ON UNIT 5037 AT END OF TIME STEP  363, STRESS PERIOD    1

 DRAWDOWN WILL BE SAVED ON UNIT   38 AT END OF TIME STEP  363, STRESS PERIOD    1
1
  VOLUMETRIC BUDGET FOR ENTIRE MODEL AT END OF TIME STEP  363, STRESS PERIOD   1
  ------------------------------------------------------------------------------

     CUMULATIVE VOLUMES      L**3       RATES FOR THIS TIME STEP      L**3/T
     ------------------                 ------------------------

           IN:                                      IN:
           ---                                      ---
             STORAGE =    17369218.0000               STORAGE =      106732.8203
       CONSTANT HEAD =           0.0000         CONSTANT HEAD =           0.0000
       RIVER LEAKAGE =     2069059.1250         RIVER LEAKAGE =        2987.8970
            RECHARGE =    25561258.0000              RECHARGE =       10818.7881

            TOTAL IN =    44999536.0000              TOTAL IN =      120539.5078

          OUT:                                     OUT:
          ----                                     ----
             STORAGE =    20113980.0000               STORAGE =       38483.1484
       CONSTANT HEAD =           0.0000         CONSTANT HEAD =           0.0000
       RIVER LEAKAGE =    24866640.0000         RIVER LEAKAGE =       82044.7578
            RECHARGE =           0.0000              RECHARGE =           0.0000

           TOTAL OUT =    44980620.0000             TOTAL OUT =      120527.9062

            IN - OUT =       18916.0000              IN - OUT =          11.6016

 PERCENT DISCREPANCY =           0.04     PERCENT DISCREPANCY =           0.01






         TIME SUMMARY AT END OF TIME STEP  363 IN STRESS PERIOD    1
                    SECONDS     MINUTES      HOURS       DAYS        YEARS
                    -----------------------------------------------------------
   TIME STEP LENGTH  86400.      1440.0      24.000      1.0000     2.73785E-03
 STRESS PERIOD TIME 3.13632E+07 5.22720E+05  8712.0      363.00     0.99384    
         TOTAL TIME 3.13632E+07 5.22720E+05  8712.0      363.00     0.99384    
1
 
 SOLVING FOR HEAD 
                                                   Max.-Head-Change                        Max.-Flux-Residual
  Residual-Control   Outer-Iter.   Inner-Iter.     Column Row Layer    Max.-Head-Change    Column Row Layer    Max.-Flux-Residual            L2-New               L2-Old           Solver-Max-Delh
          0                 1           2            11    6     1      -0.3829583668E+02       8    8    1       0.1991698420E+04      0.8472402257E+04      0.8722520299E+02     -0.3829583668E+02
          0                 2           2            33    9     1       0.5096841285E+01      34   14    1       0.6750245208E+04      0.6804611946E+04      0.8472402257E+04      0.5096841285E+01
          0                 3           2            33    9     1       0.2548446177E+00       8    8    1       0.1888239542E+04      0.1917937297E+04      0.6804611946E+04      0.2548446177E+00
          0                 4           2             8    8     1       0.2662488290E-01       8    8    1       0.3350806396E+03      0.3355021977E+03      0.1917937297E+04      0.2662488290E-01

    ------------------------------------------------
       NWT REQUIRED            4 OUTER ITERATIONS 
       AND A TOTAL OF          8 INNER ITERATIONS.
    ------------------------------------------------

 OUTPUT CONTROL FOR STRESS PERIOD    1   TIME STEP  364
    SAVE HEAD FOR ALL LAYERS
    SAVE DRAWDOWN FOR ALL LAYERS
    SAVE BUDGET
    PRINT BUDGET
 UBDSV1 SAVING "         STORAGE" ON UNIT   9 AT TIME STEP364, STRESS PERIOD   1
 UBDSV2 SAVING "   CONSTANT HEAD" ON UNIT   9 AT TIME STEP364, STRESS PERIOD   1
 UBDSV1 SAVING "FLOW RIGHT FACE " ON UNIT   9 AT TIME STEP364, STRESS PERIOD   1
 UBDSV1 SAVING "FLOW FRONT FACE " ON UNIT   9 AT TIME STEP364, STRESS PERIOD   1
 UBDSV4 SAVING "   RIVER LEAKAGE" ON UNIT   9 AT TIME STEP364, STRESS PERIOD   1
 UBDSV3 SAVING "        RECHARGE" ON UNIT   9 AT TIME STEP364, STRESS PERIOD   1

 HEAD WILL BE SAVED ON UNIT 5037 AT END OF TIME STEP  364, STRESS PERIOD    1

 DRAWDOWN WILL BE SAVED ON UNIT   38 AT END OF TIME STEP  364, STRESS PERIOD    1
1
  VOLUMETRIC BUDGET FOR ENTIRE MODEL AT END OF TIME STEP  364, STRESS PERIOD   1
  ------------------------------------------------------------------------------

     CUMULATIVE VOLUMES      L**3       RATES FOR THIS TIME STEP      L**3/T
     ------------------                 ------------------------

           IN:                                      IN:
           ---                                      ---
             STORAGE =    17464014.0000               STORAGE =       94795.3125
       CONSTANT HEAD =           0.0000         CONSTANT HEAD =           0.0000
       RIVER LEAKAGE =     2072812.6250         RIVER LEAKAGE =        3753.5195
            RECHARGE =    25571264.0000              RECHARGE =       10006.3799

            TOTAL IN =    45108088.0000              TOTAL IN =      108555.2109

          OUT:                                     OUT:
          ----                                     ----
             STORAGE =    20149852.0000               STORAGE =       35872.2422
       CONSTANT HEAD =           0.0000         CONSTANT HEAD =           0.0000
       RIVER LEAKAGE =    24939262.0000         RIVER LEAKAGE =       72622.1562
            RECHARGE =           0.0000              RECHARGE =           0.0000

           TOTAL OUT =    45089112.0000             TOTAL OUT =      108494.3984

            IN - OUT =       18976.0000              IN - OUT =          60.8125

 PERCENT DISCREPANCY =           0.04     PERCENT DISCREPANCY =           0.06






         TIME SUMMARY AT END OF TIME STEP  364 IN STRESS PERIOD    1
                    SECONDS     MINUTES      HOURS       DAYS        YEARS
                    -----------------------------------------------------------
   TIME STEP LENGTH  86400.      1440.0      24.000      1.0000     2.73785E-03
 STRESS PERIOD TIME 3.14496E+07 5.24160E+05  8736.0      364.00     0.99658    
         TOTAL TIME 3.14496E+07 5.24160E+05  8736.0      364.00     0.99658    
1
 
 SOLVING FOR HEAD 
                                                   Max.-Head-Change                        Max.-Flux-Residual
  Residual-Control   Outer-Iter.   Inner-Iter.     Column Row Layer    Max.-Head-Change    Column Row Layer    Max.-Flux-Residual            L2-New               L2-Old           Solver-Max-Delh
          0                 1           2            11    6     1      -0.2897340048E+02       8    8    1       0.1930520024E+04      0.7999318139E+04      0.5947974206E+02     -0.2897340048E+02
          0                 2           2            11    6     1       0.1072985921E+02       8    8    1       0.1680380360E+04      0.1884483742E+04      0.7999318139E+04      0.1072985921E+02
          0                 3           2            11    6     1       0.5364984293E+00       8    8    1      -0.1722566305E+03      0.1813123405E+03      0.1884483742E+04      0.5364984293E+00
          0                 4           2            11    6     1       0.2681982520E-01       8    8    1      -0.8612813108E+01      0.9065495571E+01      0.1813123405E+03      0.2681982520E-01

    ------------------------------------------------
       NWT REQUIRED            4 OUTER ITERATIONS 
       AND A TOTAL OF          8 INNER ITERATIONS.
    ------------------------------------------------

 OUTPUT CONTROL FOR STRESS PERIOD    1   TIME STEP  365
    SAVE HEAD FOR ALL LAYERS
    SAVE DRAWDOWN FOR ALL LAYERS
    SAVE BUDGET
    PRINT BUDGET
 UBDSV1 SAVING "         STORAGE" ON UNIT   9 AT TIME STEP365, STRESS PERIOD   1
 UBDSV2 SAVING "   CONSTANT HEAD" ON UNIT   9 AT TIME STEP365, STRESS PERIOD   1
 UBDSV1 SAVING "FLOW RIGHT FACE " ON UNIT   9 AT TIME STEP365, STRESS PERIOD   1
 UBDSV1 SAVING "FLOW FRONT FACE " ON UNIT   9 AT TIME STEP365, STRESS PERIOD   1
 UBDSV4 SAVING "   RIVER LEAKAGE" ON UNIT   9 AT TIME STEP365, STRESS PERIOD   1
 UBDSV3 SAVING "        RECHARGE" ON UNIT   9 AT TIME STEP365, STRESS PERIOD   1

 HEAD WILL BE SAVED ON UNIT 5037 AT END OF TIME STEP  365, STRESS PERIOD    1

 DRAWDOWN WILL BE SAVED ON UNIT   38 AT END OF TIME STEP  365, STRESS PERIOD    1
1
  VOLUMETRIC BUDGET FOR ENTIRE MODEL AT END OF TIME STEP  365, STRESS PERIOD   1
  ------------------------------------------------------------------------------

     CUMULATIVE VOLUMES      L**3       RATES FOR THIS TIME STEP      L**3/T
     ------------------                 ------------------------

           IN:                                      IN:
           ---                                      ---
             STORAGE =    17552912.0000               STORAGE =       88897.3594
       CONSTANT HEAD =           0.0000         CONSTANT HEAD =           0.0000
       RIVER LEAKAGE =     2076852.1250         RIVER LEAKAGE =        4039.5435
            RECHARGE =    25580570.0000              RECHARGE =        9306.8271

            TOTAL IN =    45210336.0000              TOTAL IN =      102243.7344

          OUT:                                     OUT:
          ----                                     ----
             STORAGE =    20183254.0000               STORAGE =       33402.7852
       CONSTANT HEAD =           0.0000         CONSTANT HEAD =           0.0000
       RIVER LEAKAGE =    25008102.0000         RIVER LEAKAGE =       68840.4922
            RECHARGE =           0.0000              RECHARGE =           0.0000

           TOTAL OUT =    45191356.0000             TOTAL OUT =      102243.2812

            IN - OUT =       18980.0000              IN - OUT =           0.4531

 PERCENT DISCREPANCY =           0.04     PERCENT DISCREPANCY =           0.00






         TIME SUMMARY AT END OF TIME STEP  365 IN STRESS PERIOD    1
                    SECONDS     MINUTES      HOURS       DAYS        YEARS
                    -----------------------------------------------------------
   TIME STEP LENGTH  86400.      1440.0      24.000      1.0000     2.73785E-03
 STRESS PERIOD TIME 3.15360E+07 5.25600E+05  8760.0      365.00     0.99932    
         TOTAL TIME 3.15360E+07 5.25600E+05  8760.0      365.00     0.99932    
1
