1
    SWAT Mar 17 2015    VER 2012/Rev 636_smrt                                                            0/ 0/   0      0: 0: 0

    General Input/Output section (file.cio):                                        
    4/9/2015 12:00:00 AM ARCGIS-SWAT interface AV                                   
                                                                                    
         Number of years in run:    1
         Area of watershed:      469.120 km2
1
    SWAT Mar 17 2015    VER 2012/Rev 636_smrt                                       

    General Input/Output section (file.cio):                                        
    4/9/2015 12:00:00 AM ARCGIS-SWAT interface AV                                   
                                                                                    
Annual Summary for Watershed in year    1 of simulation

UNIT                                             PERCO           TILE                                                                            WATER   SED     NO3     NO3     NO3     NO3     NO3     NO3     N       P       P       P       P       P       NO3     P
TIME     PREC    SURQ    LATQ    GWQ     SWGW    LATE    RECH    Q           DRN       SW        GW      GWSTOR  GWCON   GWET    ET      PET     YIELD   YIELD   SURQ    LATQ    GWQ     SWGW    PERC    CROP    ORGANIC SOLUBLE ORGANIC TILENO3 GWQ     SWGW    DRN     DRN
         (mm)    (mm)    (mm)    (mm)    (mm)    (mm)    (mm)    (mm)        (mm)      (mm)      (mm)    mm      mm      mm      (mm)    (mm)    (mm)    (mm)    ---------------------(kg nutrient/ha)--------------------------         ------------------------
    1    1.10    0.00    0.00    0.00    0.00    0.00    0.00    0.00    0.00   87.42 3.01626E+02  6.206E-02    0.00    0.00      1.65      2.16    0.00    0.00    0.00    0.00    0.00    0.00    0.00    0.00    0.00    0.00    0.00    0.00    0.00    0.00    0.00    0.00
    2   16.90    0.00    0.00    0.00    0.08    0.00    0.00    0.00    0.00   87.20 3.01672E+02  8.945E-02    0.00    0.00      2.19      5.85   -0.76    0.00    0.00    0.00    0.00    0.00    0.00    0.00    0.00    0.00    0.00    0.00    0.00    0.00    0.00    0.00
    3    0.00    0.01    0.00    0.05    0.00    0.00    0.00    0.00    0.00   93.43 3.01667E+02 -4.702E-02    0.00    0.00      4.16      8.80    0.62    0.00    0.00    0.00    0.00    0.00    0.00    0.00    0.01    0.00    0.00    0.00    0.00    0.00    0.00    0.00
    4    0.10    0.02    0.01    0.02    0.01    0.00    0.00    0.00    0.00  103.23 3.00963E+02 -1.342E-02    0.00    0.00      2.45      2.56    0.42    0.00    0.00    0.00    0.00    0.00    0.00    0.00    0.02    0.00    0.00    0.00    0.00    0.00    0.00    0.00
    5    0.40    0.00    0.01    0.05    0.00    0.00    0.00    0.00    0.00  103.41 3.00875E+02 -4.599E-02    0.00    0.00      2.22      2.32    0.56    0.00    0.00    0.00    0.00    0.00    0.00    0.00    0.00    0.00    0.00    0.00    0.00    0.00    0.00    0.00
    6    0.00    0.00    0.01    0.06    0.00    0.00    0.00    0.00    0.00  101.81 3.00819E+02 -6.071E-02    0.00    0.00     15.98     16.83    0.68    0.00    0.00    0.00    0.00    0.00    0.00    0.00    0.00    0.00    0.00    0.00    0.00    0.00    0.00    0.00
    7    0.00    0.00    0.01    0.06    0.00    0.00    0.00    0.00    0.00   99.99 3.00758E+02 -6.415E-02    0.00    0.00     18.26     21.47    0.71    0.00    0.00    0.00    0.00    0.00    0.00    0.00    0.00    0.00    0.00    0.00    0.00    0.00    0.00    0.00
    8    0.00    0.00    0.01    0.06    0.00    0.00    0.00    0.00    0.00   98.76 3.00833E+02 -6.368E-02    0.00    0.00     12.28     15.69    0.70    0.00    0.00    0.00    0.00    0.00    0.00    0.00    0.00    0.00    0.00    0.00    0.00    0.00    0.00    0.00
    9    1.90    0.00    0.01    0.06    0.00    0.00    0.00    0.00    0.00  100.34 2.99720E+02 -6.563E-02    0.00    0.00      3.13      3.28    0.72    0.00    0.00    0.00    0.00    0.00    0.00    0.00    0.00    0.00    0.00    0.00    0.00    0.00    0.00    0.00
   10    0.00    0.00    0.01    0.06    0.00    0.00    0.00    0.00    0.00   97.82 2.99774E+02 -6.625E-02    0.00    0.00     25.19     26.77    0.71    0.00    0.00    0.00    0.00    0.00    0.00    0.00    0.00    0.00    0.00    0.00    0.00    0.00    0.00    0.00
   11    0.00    0.00    0.01    0.06    0.00    0.00    0.00    0.00    0.00   96.95 2.98810E+02 -6.632E-02    0.00    0.00      8.73     11.67    0.71    0.00    0.00    0.00    0.00    0.00    0.00    0.00    0.00    0.00    0.00    0.00    0.00    0.00    0.00    0.00
   12    1.20    0.00    0.01    0.06    0.00    0.00    0.00    0.00    0.00   96.95 2.98134E+02 -6.613E-02    0.00    0.00      0.01      0.01    0.70    0.00    0.00    0.00    0.00    0.00    0.00    0.00    0.00    0.00    0.00    0.00    0.00    0.00    0.00    0.00
   13    0.20    0.00    0.01    0.06    0.00    0.00    0.00    0.00    0.00   96.95 2.97873E+02 -6.625E-02    0.00    0.00      0.01      0.02    0.70    0.00    0.00    0.00    0.00    0.00    0.00    0.00    0.00    0.00    0.00    0.00    0.00    0.00    0.00    0.00
   14    0.00    0.00    0.01    0.06    0.00    0.00    0.00    0.00    0.00   96.53 2.97646E+02 -6.634E-02    0.00    0.00     18.22     19.42    0.70    0.00    0.00    0.00    0.00    0.00    0.00    0.00    0.00    0.00    0.00    0.00    0.00    0.00    0.00    0.00
   15    0.00    0.00    0.01    0.06    0.00    0.00    0.00    0.00    0.00   95.22 2.97508E+02 -6.632E-02    0.00    0.00     13.08     17.53    0.69    0.00    0.00    0.00    0.00    0.00    0.00    0.00    0.00    0.00    0.00    0.00    0.00    0.00    0.00    0.00
   16   10.80    0.02    0.01    0.06    0.00    0.00    0.00    0.00    0.00  104.93 2.96673E+02 -6.634E-02    0.00    0.00      9.14      9.56    0.95    0.01    0.00    0.00    0.00    0.00    0.00    0.00    0.03    0.00    0.00    0.00    0.00    0.00    0.00    0.00
   17    0.00    0.00    0.01    0.04    0.00    0.00    0.00    0.00    0.00  103.81 2.95831E+02 -4.492E-02    0.00    0.00     11.20     12.17    0.55    0.00    0.00    0.00    0.00    0.00    0.00    0.00    0.00    0.00    0.00    0.00    0.00    0.00    0.00    0.00
   18    0.00    0.00    0.01    0.08    0.00    0.00    0.00    0.00    0.00  102.12 2.95909E+02 -7.992E-02    0.00    0.00     16.89     19.42    0.88    0.00    0.00    0.00    0.00    0.00    0.00    0.00    0.00    0.00    0.00    0.00    0.00    0.00    0.00    0.00
   19    0.00    0.00    0.01    0.05    0.00    0.00    0.00    0.00    0.00  101.10 2.95837E+02 -4.827E-02    0.00    0.00     10.22     12.58    0.55    0.00    0.00    0.00    0.00    0.00    0.00    0.00    0.00    0.00    0.00    0.00    0.00    0.00    0.00    0.00
   20    0.20    0.00    0.01    0.08    0.00    0.00    0.00    0.00    0.00  100.93 2.95355E+02 -8.055E-02    0.00    0.00      1.69      2.17    0.87    0.00    0.00    0.00    0.00    0.00    0.00    0.00    0.00    0.00    0.00    0.00    0.00    0.00    0.00    0.00
   21    0.00    0.00    0.01    0.05    0.00    0.00    0.00    0.00    0.00   99.66 2.94437E+02 -4.819E-02    0.00    0.00     14.77     18.58    0.54    0.00    0.00    0.00    0.00    0.00    0.00    0.00    0.00    0.00    0.00    0.00    0.00    0.00    0.00    0.00
   22    0.00    0.00    0.01    0.08    0.00    0.00    0.00    0.00    0.00   97.88 2.92271E+02 -8.036E-02    0.00    0.00     17.85     24.12    0.86    0.00    0.00    0.00    0.00    0.00    0.00    0.00    0.00    0.00    0.00    0.00    0.00    0.00    0.00    0.00
   23    0.00    0.00    0.01    0.05    0.00    0.00    0.00    0.00    0.00   97.17 2.92383E+02 -4.811E-02    0.00    0.00      7.10     10.47    0.52    0.00    0.00    0.00    0.00    0.00    0.00    0.00    0.00    0.00    0.00    0.00    0.00    0.00    0.00    0.00
   24    0.00    0.00    0.01    0.08    0.00    0.00    0.00    0.00    0.00   95.89 2.92378E+02 -8.036E-02    0.00    0.00     12.81     19.54    0.85    0.00    0.00    0.00    0.00    0.00    0.00    0.00    0.00    0.00    0.00    0.00    0.00    0.00    0.00    0.00
   25    0.00    0.00    0.01    0.05    0.00    0.00    0.00    0.00    0.00   93.25 2.91649E+02 -4.816E-02    0.00    0.00     26.40     42.84    0.52    0.00    0.00    0.00    0.00    0.00    0.00    0.00    0.00    0.00    0.00    0.00    0.00    0.00    0.00    0.00
   26    0.00    0.00    0.01    0.08    0.00    0.00    0.00    0.00    0.00   92.03 2.90294E+02 -8.031E-02    0.00    0.00     12.22     22.09    0.84    0.00    0.00    0.00    0.00    0.00    0.00    0.00    0.00    0.00    0.00    0.00    0.00    0.00    0.00    0.00
   27   14.40    0.03    0.02    0.05    0.00    0.00    0.00    0.00    0.00  106.06 2.90183E+02 -4.803E-02    0.00    0.00      1.31      1.37    0.89    0.01    0.00    0.00    0.00    0.00    0.00    0.00    0.02    0.00    0.00    0.00    0.00    0.00    0.00    0.00
   28    0.10    0.00    0.02    0.06    0.00    0.00    0.00    0.00    0.00  106.01 2.89271E+02 -5.877E-02    0.00    0.00      1.48      1.54    0.73    0.00    0.00    0.00    0.00    0.00    0.00    0.00    0.00    0.00    0.00    0.00    0.00    0.00    0.00    0.00
   29    0.30    0.00    0.02    0.08    0.00    0.00    0.00    0.00    0.00  105.88 2.87511E+02 -8.270E-02    0.00    0.00      4.28      4.45    0.95    0.00    0.00    0.00    0.00    0.00    0.00    0.00    0.00    0.00    0.00    0.00    0.00    0.00    0.00    0.00
   30    0.60    0.00    0.01    0.05    0.00    0.00    0.00    0.00    0.00  105.55 2.86453E+02 -4.844E-02    0.00    0.00      9.27      9.63    0.59    0.00    0.00    0.00    0.00    0.00    0.00    0.00    0.00    0.00    0.00    0.00    0.00    0.00    0.00    0.00
   31    2.60    0.00    0.02    0.08    0.00    0.00    0.00    0.00    0.00  107.87 2.86250E+02 -8.006E-02    0.00    0.00      2.21      2.30    0.94    0.00    0.00    0.01    0.00    0.00    0.00    0.00    0.00    0.00    0.00    0.00    0.00    0.00    0.00    0.00
    1   50.80    0.08    0.30 1.73426E+00 1.25383E-01    0.00    0.00    0.00    0.00 1078.75 2.86250E+02 -1.630E+00 0.000E+00 0.000E+00    286.42    367.19     19.89      0.02      0.01      0.10      0.00      0.00      0.00      0.00      0.08      0.00      0.01      0.00      0.00      0.00      0.00      0.00
   32    1.10    0.00    0.01    0.05    0.00    0.00    0.00    0.00    0.00  107.87 2.86132E+02 -4.758E-02    0.00    0.00      0.01      0.02    0.58    0.00    0.00    0.01    0.00    0.00    0.00    0.00    0.00    0.00    0.00    0.00    0.00    0.00    0.00    0.00
   33    0.10    0.00    0.01    0.08    0.00    0.00    0.00    0.00    0.00  107.80 2.84414E+02 -7.967E-02    0.00    0.00      0.73      1.53    0.90    0.00    0.00    0.00    0.00    0.00    0.00    0.00    0.00    0.00    0.00    0.00    0.00    0.00    0.00    0.00
   34    0.20    0.00    0.01    0.04    0.00    0.00    0.00    0.00    0.00  107.71 2.84482E+02 -4.720E-02    0.00    0.00      0.92      1.92    0.56    0.00    0.00    0.00    0.00    0.00    0.00    0.00    0.00    0.00    0.00    0.00    0.00    0.00    0.00    0.00
   35    8.00    0.00    0.01    0.08    0.00    0.00    0.00    0.00    0.00  107.71 2.84289E+02 -7.933E-02    0.00    0.00      0.01      0.01    0.88    0.00    0.00    0.00    0.00    0.00    0.00    0.00    0.00    0.00    0.00    0.00    0.00    0.00    0.00    0.00
   36    0.60    0.00    0.01    0.04    0.00    0.00    0.00    0.00    0.00  107.71 2.84443E+02 -4.686E-02    0.00    0.00      0.01      0.01    0.54    0.00    0.00    0.00    0.00    0.00    0.00    0.00    0.00    0.00    0.00    0.00    0.00    0.00    0.00    0.00
   37    0.80    0.00    0.01    0.08    0.00    0.00    0.00    0.00    0.00  107.71 2.82827E+02 -7.897E-02    0.00    0.00      0.00      0.00    0.87    0.00    0.00    0.00    0.00    0.00    0.00    0.00    0.00    0.00    0.00    0.00    0.00    0.00    0.00    0.00
   38    0.30    0.00    0.01    0.04    0.00    0.00    0.00    0.00    0.00  107.57 2.82020E+02 -4.658E-02    0.00    0.00      1.40      2.94    0.53    0.00    0.00    0.00    0.00    0.00    0.00    0.00    0.00    0.00    0.00    0.00    0.00    0.00    0.00    0.00
   39    0.20    1.08    0.01    0.08    0.00    0.00    0.00    0.00    0.00  117.31 2.80881E+02 -7.871E-02    0.00    0.00      4.67      4.76   10.36    0.88    0.00    0.00    0.00    0.00    0.00    0.00    3.02    0.00    0.37    0.00    0.00    0.00    0.00    0.00
   40    1.50    0.00    0.01    0.01    0.02    0.00    0.00    0.00    0.00  118.28 2.80082E+02  8.918E-03    0.00    0.00      4.98      5.08    1.04    0.00    0.00    0.01    0.00    0.00    0.00    0.00    0.17    0.00    0.02    0.00    0.00    0.00    0.00    0.00
   41   12.00    0.04    0.03    0.11    0.00    0.00    0.00    0.00    0.00  129.55 2.78271E+02 -1.141E-01    0.00    0.00      3.76      3.78    1.90    0.02    0.00    0.01    0.00    0.00    0.00    0.00    0.07    0.00    0.01    0.00    0.00    0.00    0.00    0.00
   42    0.10    0.00    0.03    0.05    0.00    0.00    0.00    0.00    0.00  128.82 2.78600E+02 -5.477E-02    0.00    0.00      8.35      8.45    0.83    0.00    0.00    0.01    0.00    0.00    0.00    0.00    0.01    0.00    0.00    0.00    0.00    0.00    0.00    0.00
   43    0.00    0.00    0.02    0.08    0.00    0.00    0.00    0.00    0.00  127.12 2.76584E+02 -8.083E-02    0.00    0.00     17.01     17.59    1.02    0.00    0.00    0.01    0.00    0.00    0.00    0.00    0.00    0.00    0.00    0.00    0.00    0.00    0.00    0.00
   44    0.00    0.00    0.02    0.04    0.00    0.00    0.00    0.00    0.00  124.80 2.75076E+02 -4.721E-02    0.00    0.00     23.20     24.73    0.65    0.00    0.00    0.01    0.00    0.00    0.00    0.00    0.00    0.00    0.00    0.00    0.00    0.00    0.00    0.00
   45    0.00    0.00    0.02    0.08    0.00    0.00    0.00    0.00    0.00  122.54 2.73883E+02 -7.859E-02    0.00    0.00     22.63     24.56    0.96    0.00    0.00    0.01    0.00    0.00    0.00    0.00    0.00    0.00    0.00    0.00    0.00    0.00    0.00    0.00
   46    0.00    0.00    0.02    0.04    0.00    0.00    0.00    0.00    0.00  120.46 2.73587E+02 -4.651E-02    0.00    0.00     20.87     23.07    0.61    0.00    0.00    0.01    0.00    0.00    0.00    0.00    0.00    0.00    0.00    0.00    0.00    0.00    0.00    0.00
   47    0.00    0.00    0.02    0.08    0.00    0.00    0.00    0.00    0.00  118.45 2.72798E+02 -7.818E-02    0.00    0.00     20.13     22.80    0.93    0.00    0.00    0.01    0.00    0.00    0.00    0.00    0.00    0.00    0.00    0.00    0.00    0.00    0.00    0.00
   48    0.40    0.00    0.02    0.04    0.00    0.00    0.00    0.00    0.00  118.65 2.71887E+02 -4.622E-02    0.00    0.00      1.95      2.24    0.59    0.00    0.00    0.01    0.00    0.00    0.00    0.00    0.00    0.00    0.00    0.00    0.00    0.00    0.00    0.00
   49    1.70    0.00    0.02    0.08    0.00    0.00    0.00    0.00    0.00  119.91 2.72056E+02 -7.832E-02    0.00    0.00      4.38      4.50    0.91    0.00    0.00    0.01    0.00    0.00    0.00    0.00    0.00    0.00    0.00    0.00    0.00    0.00    0.00    0.00
   50    0.60    0.00    0.02    0.04    0.00    0.00    0.00    0.00    0.00  120.18 2.72191E+02 -4.618E-02    0.00    0.00      3.22      3.26    0.58    0.00    0.00    0.00    0.00    0.00    0.00    0.00    0.00    0.00    0.00    0.00    0.00    0.00    0.00    0.00
   51    5.00    0.01    0.02    0.08    0.00    0.00    0.00    0.00    0.00  124.83 2.70303E+02 -7.768E-02    0.00    0.00      2.74      2.76    0.98    0.00    0.00    0.00    0.00    0.00    0.00    0.00    0.01    0.00    0.00    0.00    0.00    0.00    0.00    0.00
   52    3.00    0.00    0.02    0.04    0.00    0.00    0.00    0.00    0.00  125.62 2.70059E+02 -4.570E-02    0.00    0.00     21.65     21.73    0.63    0.00    0.00    0.00    0.00    0.00    0.00    0.00    0.00    0.00    0.00    0.00    0.00    0.00    0.00    0.00
   53    1.60    0.00    0.02    0.08    0.00    0.00    0.00    0.00    0.00  126.20 2.69643E+02 -7.746E-02    0.00    0.00     10.17     10.22    0.93    0.00    0.00    0.00    0.00    0.00    0.00    0.00    0.00    0.00    0.00    0.00    0.00    0.00    0.00    0.00
   54   17.10    0.35    0.04    0.23    0.00    1.09    0.53    0.00    0.00  140.95 3.06181E+02  2.811E-01    0.00    0.00      4.75      4.77    5.77    0.25    0.00    0.01    0.00    0.00    4.86    0.00    0.80    0.00    0.10    0.00    0.00    0.00    0.00    0.00
   55    0.10    0.00    0.04    0.15    0.00    0.01    0.28    0.00    0.00  139.73 3.21360E+02  1.288E-01    0.00    0.00     13.06     13.11    2.19    0.00    0.00    0.01    0.00    0.00    0.02    0.00    0.06    0.00    0.01    0.00    0.00    0.00    0.00    0.00
   56    0.10    0.00    0.03    0.15    0.00    0.00    0.14    0.00    0.00  138.93 3.19976E+02 -7.676E-03    0.00    0.00      9.09      9.23    1.93    0.00    0.00    0.01    0.00    0.00    0.00    0.00    0.01    0.00    0.00    0.00    0.00    0.00    0.00    0.00
   57    0.00    0.00    0.03    0.13    0.00    0.00    0.07    0.00    0.00  134.31 3.12157E+02 -5.052E-02    0.00    0.00     46.21     47.39    1.59    0.00    0.00    0.01    0.00    0.00    0.00    0.00    0.00    0.00    0.00    0.00    0.00    0.00    0.00    0.00
   58    0.00    0.00    0.03    0.09    0.00    0.00    0.04    0.00    0.00  131.42 3.03611E+02 -4.989E-02    0.00    0.00     28.94     30.78    1.19    0.00    0.00    0.01    0.00    0.00    0.00    0.00    0.00    0.00    0.00    0.00    0.00    0.00    0.00    0.00
   59   10.70    0.04    0.03    0.08    0.00    0.02    0.03    0.00    0.00  141.21 2.96451E+02 -4.638E-02    0.00    0.00      6.99      7.01    1.47    0.02    0.00    0.01    0.00    0.00    0.05    0.00    0.06    0.00    0.01    0.00    0.00    0.00    0.00    0.00
    2   65.20    1.52    0.57 2.16025E+00 5.10603E-02   11.21   10.90    0.00    0.00 1412.05 2.96451E+02 -1.112E+00 0.000E+00 0.000E+00    281.83    298.26     41.93      1.17      0.01      0.16      0.00      0.00      4.93      0.00      4.21      0.00      0.52      0.00      0.00      0.00      0.00      0.00
   60    0.90    0.00    0.03    0.07    0.00    0.02    0.03    0.00    0.00  140.05 2.90139E+02 -4.466E-02    0.00    0.00     20.22     20.27    1.08    0.00    0.00    0.01    0.00    0.00    0.06    0.00    0.00    0.00    0.00    0.00    0.00    0.00    0.00    0.00
   61    0.00    0.00    0.03    0.07    0.00    0.00    0.01    0.00    0.00  135.25 2.84268E+02 -5.210E-02    0.00    0.00     48.10     49.28    0.97    0.00    0.00    0.01    0.00    0.00    0.00    0.00    0.00    0.00    0.00    0.00    0.00    0.00    0.00    0.00
   62    2.70    0.00    0.03    0.06    0.00    0.00    0.01    0.00    0.00  135.61 2.78680E+02 -5.564E-02    0.00    0.00     23.24     23.31    0.93    0.00    0.00    0.01    0.00    0.00    0.00    0.00    0.00    0.00    0.00    0.00    0.00    0.00    0.00    0.00
   63    6.20    0.01    0.03    0.06    0.00    0.00    0.00    0.00    0.00  140.81 2.74648E+02 -5.736E-02    0.00    0.00      9.11      9.14    0.99    0.00    0.00    0.00    0.00    0.00    0.00    0.00    0.01    0.00    0.00    0.00    0.00    0.00    0.00    0.00
   64    0.00    0.00    0.03    0.06    0.00    0.00    0.00    0.00    0.00  136.16 2.72011E+02 -5.819E-02    0.00    0.00     46.58     46.80    0.89    0.00    0.00    0.00    0.00    0.00    0.00    0.00    0.00    0.00    0.00    0.00    0.00    0.00    0.00    0.00
   65    0.10    0.00    0.03    0.06    0.00    0.00    0.00    0.00    0.00  133.74 2.68934E+02 -5.861E-02    0.00    0.00     25.20     26.50    0.86    0.00    0.00    0.00    0.00    0.00    0.00    0.00    0.00    0.00    0.00    0.00    0.00    0.00    0.00    0.00
   66    1.80    0.00    0.03    0.06    0.00    0.00    0.00    0.00    0.00  134.52 2.67339E+02 -5.882E-02    0.00    0.00     10.14     10.24    0.84    0.00    0.00    0.00    0.00    0.00    0.00    0.00    0.00    0.00    0.00    0.00    0.00    0.00    0.00    0.00
   67    1.00    0.00    0.03    0.06    0.00    0.00    0.00    0.00    0.00  134.43 2.65589E+02 -5.889E-02    0.00    0.00     10.88     10.92    0.82    0.00    0.00    0.00    0.00    0.00    0.00    0.00    0.00    0.00    0.00    0.00    0.00    0.00    0.00    0.00
   68    0.30    0.00    0.02    0.06    0.00    0.00    0.00    0.00    0.00  133.71 2.64839E+02 -5.894E-02    0.00    0.00     10.23     10.27    0.81    0.00    0.00    0.00    0.00    0.00    0.00    0.00    0.00    0.00    0.00    0.00    0.00    0.00    0.00    0.00
   69    0.20    0.00    0.02    0.06    0.00    0.00    0.00    0.00    0.00  132.62 2.62978E+02 -5.897E-02    0.00    0.00     12.96     13.14    0.79    0.00    0.00    0.00    0.00    0.00    0.00    0.00    0.00    0.00    0.00    0.00    0.00    0.00    0.00    0.00
   70    0.30    0.00    0.02    0.06    0.00    0.00    0.00    0.00    0.00  131.53 2.62847E+02 -5.896E-02    0.00    0.00     13.89     14.19    0.78    0.00    0.00    0.00    0.00    0.00    0.00    0.00    0.00    0.00    0.00    0.00    0.00    0.00    0.00    0.00
   71    2.20    0.00    0.02    0.06    0.00    0.00    0.00    0.00    0.00  131.97 2.62372E+02 -5.894E-02    0.00    0.00     17.47     17.53    0.79    0.00    0.00    0.00    0.00    0.00    0.00    0.00    0.00    0.00    0.00    0.00    0.00    0.00    0.00    0.00
   72    6.50    0.01    0.03    0.06    0.00    0.00    0.00    0.00    0.00  137.12 2.62111E+02 -5.890E-02    0.00    0.00     12.57     12.61    0.89    0.00    0.00    0.00    0.00    0.00    0.00    0.00    0.01    0.00    0.00    0.00    0.00    0.00    0.00    0.00
   73   27.40    2.15    0.06    0.75    0.00    4.19    2.04    0.00    0.00  156.41 4.96297E+02  1.259E+00    0.00    0.00     11.16     11.19   26.94    0.64    0.00    0.01    0.00    0.00   18.71    0.00    2.70    0.00    0.33    0.00    0.00    0.00    0.00    0.00
   74    0.40    0.00    0.05    0.40    0.01    0.05    1.07    0.00    0.00  155.06 5.64109E+02  7.095E-01    0.00    0.00     17.05     17.09    6.62    0.00    0.00    0.01    0.00    0.00    0.12    0.00    0.21    0.00    0.03    0.00    0.00    0.00    0.00    0.00
   75    4.60    0.00    0.05    0.55    0.00    0.74    0.91    0.00    0.00  157.69 5.92553E+02  3.917E-01    0.00    0.00     11.34     11.37    6.46    0.00    0.00    0.01    0.00    0.00    2.25    0.00    0.04    0.00    0.00    0.00    0.00    0.00    0.00    0.00
   76    0.00    0.00    0.05    0.37    0.00    0.02    0.48    0.00    0.00  151.15 5.63003E+02  1.506E-01    0.00    0.00     65.27     65.52    4.23    0.00    0.00    0.01    0.00    0.00    0.04    0.00    0.01    0.00    0.00    0.00    0.00    0.00    0.00    0.00
   77    0.00    0.00    0.05    0.26    0.00    0.00    0.25    0.00    0.00  144.21 5.15004E+02  2.409E-02    0.00    0.00     69.46     70.24    3.02    0.00    0.00    0.01    0.00    0.00    0.00    0.00    0.00    0.00    0.00    0.00    0.00    0.00    0.00    0.00
   78    2.00    0.00    0.04    0.19    0.00    0.00    0.13    0.00    0.00  145.01 4.66680E+02 -3.320E-02    0.00    0.00     11.92     12.00    2.29    0.00    0.00    0.01    0.00    0.00    0.00    0.00    0.00    0.00    0.00    0.00    0.00    0.00    0.00    0.00
   79   10.90    0.05    0.05    0.13    0.00    0.00    0.06    0.00    0.00  154.43 4.22682E+02 -4.291E-02    0.00    0.00     12.76     12.79    2.20    0.02    0.00    0.01    0.00    0.00    0.00    0.00    0.06    0.00    0.01    0.00    0.00    0.00    0.00    0.00
   80    0.60    0.00    0.05    0.10    0.00    0.00    0.03    0.00    0.00  154.77 3.86134E+02 -5.219E-02    0.00    0.00      2.60      2.61    1.50    0.00    0.00    0.01    0.00    0.00    0.00    0.00    0.01    0.00    0.00    0.00    0.00    0.00    0.00    0.00
   81    0.00    0.00    0.04    0.11    0.00    0.00    0.02    0.00    0.00  151.17 3.57160E+02 -7.742E-02    0.00    0.00     36.02     36.11    1.49    0.00    0.00    0.01    0.00    0.00    0.00    0.00    0.00    0.00    0.00    0.00    0.00    0.00    0.00    0.00
   82    0.00    0.00    0.04    0.08    0.00    0.00    0.01    0.00    0.00  146.12 3.32736E+02 -6.616E-02    0.00    0.00     50.56     50.88    1.23    0.00    0.00    0.01    0.00    0.00    0.00    0.00    0.00    0.00    0.00    0.00    0.00    0.00    0.00    0.00
   83    0.00    0.00    0.04    0.07    0.00    0.00    0.00    0.00    0.00  141.02 3.14182E+02 -6.373E-02    0.00    0.00     51.06     52.32    1.12    0.00    0.00    0.01    0.00    0.00    0.00    0.00    0.00    0.00    0.00    0.00    0.00    0.00    0.00    0.00
   84    0.00    0.00    0.04    0.07    0.00    0.00    0.00    0.00    0.00  136.18 3.00789E+02 -6.308E-02    0.00    0.00     48.41     51.99    1.06    0.00    0.00    0.00    0.00    0.00    0.00    0.00    0.00    0.00    0.00    0.00    0.00    0.00    0.00    0.00
   85    3.50    0.00    0.04    0.07    0.00    0.00    0.00    0.00    0.00  138.81 2.89888E+02 -6.271E-02    0.00    0.00      8.40      8.41    1.05    0.00    0.00    0.00    0.00    0.00    0.00    0.00    0.00    0.00    0.00    0.00    0.00    0.00    0.00    0.00
   86    1.60    0.00    0.03    0.07    0.00    0.00    0.00    0.00    0.00  139.34 2.81365E+02 -6.242E-02    0.00    0.00     10.56     10.59    1.00    0.00    0.00    0.00    0.00    0.00    0.00    0.00    0.00    0.00    0.00    0.00    0.00    0.00    0.00    0.00
   87    0.00    0.00    0.03    0.07    0.00    0.00    0.00    0.00    0.00  132.87 2.74149E+02 -6.217E-02    0.00    0.00     64.74     65.18    0.97    0.00    0.00    0.00    0.00    0.00    0.00    0.00    0.00    0.00    0.00    0.00    0.00    0.00    0.00    0.00
   88    1.10    0.00    0.03    0.06    0.00    0.00    0.00    0.00    0.00  132.71 2.69439E+02 -6.199E-02    0.00    0.00     12.66     13.39    0.95    0.00    0.00    0.00    0.00    0.00    0.00    0.00    0.00    0.00    0.00    0.00    0.00    0.00    0.00    0.00
   89    2.70    0.00    0.03    0.06    0.00    0.00    0.00    0.00    0.00  134.42 2.65135E+02 -6.179E-02    0.00    0.00      9.60      9.63    0.95    0.00    0.00    0.00    0.00    0.00    0.00    0.00    0.00    0.00    0.00    0.00    0.00    0.00    0.00    0.00
   90    0.00    0.00    0.03    0.06    0.00    0.00    0.00    0.00    0.00  130.13 2.61772E+02 -6.164E-02    0.00    0.00     42.92     43.73    0.92    0.00    0.00    0.00    0.00    0.00    0.00    0.00    0.00    0.00    0.00    0.00    0.00    0.00    0.00    0.00
    3   77.00    2.23    1.10 4.24218E+00 3.85962E-02   50.30   50.60    0.00    0.00 1301.34 2.61772E+02  1.024E+00 0.000E+00 0.000E+00    797.07    809.24     75.42      0.67      0.00      0.17      0.00      0.00     21.19      0.00      3.05      0.01      0.37      0.00      0.00      0.00      0.00      0.00
   91    0.00    0.00    0.03    0.06    0.00    0.00    0.00    0.00    0.00  126.54 2.59075E+02 -6.154E-02    0.00    0.00     35.99     42.94    0.90    0.00    0.00    0.00    0.00    0.00    0.00    0.00    0.00    0.00    0.00    0.00    0.00    0.00    0.00    0.00
   92    0.00    0.00    0.03    0.06    0.00    0.00    0.00    0.00    0.00  122.67 2.57216E+02 -6.142E-02    0.00    0.00     38.74     49.96    0.88    0.00    0.00    0.00    0.00    0.00    0.00    0.00    0.00    0.00    0.00    0.00    0.00    0.00    0.00    0.00
   93    0.00    0.00    0.03    0.06    0.00    0.00    0.00    0.00    0.00  118.13 2.55637E+02 -6.135E-02    0.00    0.00     45.46     65.31    0.87    0.00    0.00    0.00    0.00    0.00    0.00    0.00    0.00    0.00    0.00    0.00    0.00    0.00    0.00    0.00
   94    0.00    0.00    0.03    0.06    0.00    0.00    0.00    0.00    0.00  112.79 2.53710E+02 -6.129E-02    0.00    0.00     53.48     83.39    0.85    0.00    0.00    0.00    0.00    0.00    0.00    0.00    0.00    0.00    0.00    0.00    0.00    0.00    0.00    0.00
   95    0.00    0.00    0.02    0.06    0.00    0.00    0.00    0.00    0.00  109.33 2.52858E+02 -6.123E-02    0.00    0.00     34.72     60.81    0.84    0.00    0.00    0.00    0.00    0.00    0.00    0.00    0.00    0.00    0.00    0.00    0.00    0.00    0.00    0.00
   96    0.00    0.00    0.02    0.06    0.00    0.00    0.00    0.00    0.00  106.40 2.52176E+02 -6.117E-02    0.00    0.00     29.32     56.53    0.83    0.00    0.00    0.00    0.00    0.00    0.00    0.00    0.00    0.00    0.00    0.00    0.00    0.00    0.00    0.00
   97    0.60    0.00    0.02    0.06    0.00    0.00    0.00    0.00    0.00  106.49 2.50912E+02 -6.112E-02    0.00    0.00      5.07      8.96    0.82    0.00    0.00    0.00    0.00    0.00    0.00    0.00    0.00    0.00    0.00    0.00    0.00    0.00    0.00    0.00
   98    2.10    0.00    0.02    0.06    0.00    0.00    0.00    0.00    0.00  107.84 2.50429E+02 -6.102E-02    0.00    0.00      7.47      8.31    0.82    0.00    0.00    0.00    0.00    0.00    0.00    0.00    0.00    0.00    0.00    0.00    0.00    0.00    0.00    0.00
   99    0.00    0.00    0.02    0.06    0.00    0.00    0.00    0.00    0.00  105.23 2.49331E+02 -6.095E-02    0.00    0.00     26.15     33.91    0.80    0.00    0.00    0.00    0.00    0.00    0.00    0.00    0.00    0.00    0.00    0.00    0.00    0.00    0.00    0.00
  100    0.20    0.00    0.02    0.06    0.00    0.00    0.00    0.00    0.00  104.85 2.47514E+02 -6.088E-02    0.00    0.00      5.80      9.74    0.79    0.00    0.00    0.00    0.00    0.00    0.00    0.00    0.00    0.00    0.00    0.00    0.00    0.00    0.00    0.00
  101    1.70    0.00    0.02    0.06    0.00    0.00    0.00    0.00    0.00  105.52 2.46574E+02 -6.084E-02    0.00    0.00     10.18     11.07    0.79    0.00    0.00    0.00    0.00    0.00    0.00    1.30    0.00    0.00    0.00    0.00    0.00    0.00    0.00    0.00
  102    0.70    0.00    0.02    0.06    0.00    0.00    0.00    0.00    0.00  104.11 2.45902E+02 -6.081E-02    0.00    0.00     21.13     22.98    0.78    0.00    0.00    0.00    0.00    0.00    0.00    2.60    0.00    0.00    0.00    0.00    0.00    0.00    0.00    0.00
  103    7.30    0.01    0.02    0.06    0.00    0.00    0.00    0.00    0.00  108.80 2.45725E+02 -6.075E-02    0.00    0.00     25.18     26.13    0.91    0.01    0.00    0.00    0.00    0.00    0.00    5.58    0.02    0.00    0.00    0.00    0.00    0.00    0.00    0.00
  104    0.00    0.00    0.02    0.06    0.00    0.00    0.00    0.00    0.00  105.59 2.45562E+02 -6.069E-02    0.00    0.00     32.11     48.86    0.81    0.00    0.00    0.00    0.00    0.00    0.00    6.73    0.00    0.00    0.00    0.00    0.00    0.00    0.00    0.00
  105    0.00    0.00    0.02    0.06    0.00    0.00    0.00    0.00    0.00  102.08 2.44660E+02 -6.060E-02    0.00    0.00     35.21     62.31    0.79    0.00    0.00    0.00    0.00    0.00    0.00    9.07    0.00    0.00    0.00    0.00    0.00    0.00    0.00    0.00
  106    0.00    0.00    0.02    0.06    0.00    0.00    0.00    0.00    0.00   98.67 2.44581E+02 -6.054E-02    0.00    0.00     34.15     69.40    0.78    0.00    0.00    0.00    0.00    0.00    0.00   10.91    0.00    0.00    0.00    0.00    0.00    0.00    0.00    0.00
  107    0.00    0.00    0.02    0.06    0.00    0.00    0.00    0.00    0.00   95.80 2.44117E+02 -6.046E-02    0.00    0.00     28.80     64.20    0.77    0.00    0.00    0.00    0.00    0.00    0.00   12.59    0.00    0.00    0.00    0.00    0.00    0.00    0.00    0.00
  108    0.00    0.00    0.02    0.06    0.00    0.00    0.00    0.00    0.00   92.95 2.44058E+02 -6.046E-02    0.00    0.00     28.52     65.83    0.76    0.00    0.00    0.00    0.00    0.00    0.00   13.04    0.00    0.00    0.00    0.00    0.00    0.00    0.00    0.00
  109    0.50    0.00    0.02    0.06    0.00    0.00    0.00    0.00    0.00   92.70 2.41575E+02 -6.029E-02    0.00    0.00      7.54     15.81    0.75    0.00    0.00    0.00    0.00    0.00    0.00    5.77    0.00    0.00    0.00    0.00    0.00    0.00    0.00    0.00
  110   11.70    0.02    0.02    0.06    0.00    0.00    0.00    0.00    0.00  101.53 2.40815E+02 -6.020E-02    0.00    0.00     26.98     27.96    1.03    0.00    0.00    0.00    0.00    0.00    0.00    8.50    0.01    0.00    0.00    0.00    0.00    0.00    0.00    0.00
  111    0.90    0.00    0.02    0.06    0.00    0.00    0.00    0.00    0.00  100.56 2.40395E+02 -6.040E-02    0.00    0.00     18.68     22.41    0.82    0.00    0.00    0.00    0.00    0.00    0.00    9.98    0.00    0.00    0.00    0.00    0.00    0.00    0.00    0.00
  112   11.00    0.02    0.03    0.06    0.00    0.00    0.00    0.00    0.00  108.10 2.40388E+02 -6.031E-02    0.00    0.00     32.95     33.18    1.05    0.00    0.00    0.00    0.00    0.00    0.00   17.87    0.01    0.00    0.00    0.00    0.00    0.00    0.00    0.00
  113    1.30    0.00    0.03    0.06    0.00    0.00    0.00    0.00    0.00  108.27 2.40077E+02 -5.994E-02    0.00    0.00     11.23     11.59    0.86    0.00    0.00    0.00    0.00    0.00    0.00   12.10    0.00    0.00    0.00    0.00    0.00    0.00    0.00    0.00
  114    0.00    0.00    0.03    0.06    0.00    0.00    0.00    0.00    0.00  102.11 2.40076E+02 -6.013E-02    0.00    0.00     61.75     71.10    0.83    0.00    0.00    0.00    0.00    0.00    0.00   23.37    0.00    0.00    0.00    0.00    0.00    0.00    0.00    0.00
  115    1.20    0.00    0.02    0.06    0.00    0.00    0.00    0.00    0.00  101.33 2.39627E+02 -5.974E-02    0.00    0.00     19.72     26.28    0.81    0.00    0.00    0.00    0.00    0.00    0.00   14.28    0.00    0.00    0.00    0.00    0.00    0.00    0.00    0.00
  116    2.70    0.00    0.02    0.06    0.00    0.00    0.00    0.00    0.00  103.33 2.39631E+02 -5.993E-02    0.00    0.00      6.76      6.92    0.82    0.00    0.01    0.00    0.00    0.00    0.00    7.59    0.00    0.00    0.00    0.00    0.00    0.00    0.00    0.00
  117    0.90    0.00    0.02    0.06    0.00    0.00    0.00    0.00    0.00  103.14 2.39627E+02 -5.983E-02    0.00    0.00     10.88     11.11    0.80    0.00    0.00    0.00    0.00    0.00    0.00   11.72    0.00    0.00    0.00    0.00    0.00    0.00    0.00    0.00
  118   10.10    0.02    0.03    0.06    0.00    0.00    0.00    0.00    0.00  109.82 2.39943E+02 -5.967E-02    0.00    0.00     32.53     32.63    1.03    0.00    0.00    0.00    0.00    0.00    0.00   17.86    0.00    0.00    0.00    0.00    0.00    0.00    0.00    0.00
  119    6.90    0.01    0.03    0.06    0.00    0.00    0.00    0.00    0.00  114.47 2.39420E+02 -5.933E-02    0.00    0.00     21.19     21.24    1.00    0.00    0.03    0.00    0.00    0.00    0.00   17.03    0.00    0.00    0.00    0.00    0.00    0.00    0.00    0.00
  120    0.50    0.00    0.03    0.06    0.00    0.00    0.00    0.00    0.00  112.35 2.39572E+02 -5.951E-02    0.00    0.00     26.24     26.85    0.88    0.00    0.00    0.00    0.00    0.00    0.00    3.95    0.00    0.00    0.00    0.00    0.00    0.00    0.00    0.00
    4   60.30    0.08    0.71 1.78603E+00 3.42757E-02    0.00    0.00    0.00    0.00 1123.48 2.39572E+02 -1.816E+00 0.000E+00 0.000E+00    773.92   1097.71     25.50      0.01      0.04      0.06      0.00      0.00      0.00    211.83      0.04      0.00      0.01      0.00      0.00      0.00      0.00      0.00
  121    0.00    0.00    0.03    0.06    0.00    0.00    0.00    0.00    0.00  104.61 2.39566E+02 -5.943E-02    0.00    0.00     77.41     88.34    0.86    0.00    0.00    0.00    0.00    0.00    0.00   32.56    0.00    0.00    0.00    0.00    0.00    0.00    0.00    0.00
  122    0.00    0.00    0.03    0.06    0.00    0.00    0.00    0.00    0.00  100.96 2.38470E+02 -5.932E-02    0.00    0.00     36.62     52.95    0.84    0.00    0.00    0.00    0.00    0.00    0.00   39.82    0.00    0.00    0.00    0.00    0.00    0.00    0.00    0.00
  123    0.00    0.00    0.03    0.06    0.00    0.00    0.00    0.00    0.00   98.11 2.38455E+02 -5.919E-02    0.00    0.00     28.61     48.81    0.82    0.00    0.00    0.00    0.00    0.00    0.00   39.58    0.00    0.00    0.00    0.00    0.00    0.00    0.00    0.00
  124    0.00    0.00    0.02    0.06    0.00    0.00    0.00    0.00    0.00   94.71 2.38435E+02 -5.908E-02    0.00    0.00     34.01     54.91    0.81    0.00    0.00    0.00    0.00    0.00    0.00   37.54    0.00    0.00    0.00    0.00    0.00    0.00    0.00    0.00
  125    0.00    0.00    0.02    0.06    0.00    0.00    0.00    0.00    0.00   91.32 2.38118E+02 -5.870E-02    0.00    0.00     33.98     59.55    0.79    0.00    0.00    0.00    0.00    0.00    0.00   25.50    0.00    0.00    0.00    0.00    0.00    0.00    0.00    0.00
  126    0.00    0.00    0.02    0.06    0.00    0.00    0.00    0.00    0.00   87.31 2.38092E+02 -5.887E-02    0.00    0.00     40.17     69.24    0.78    0.00    0.00    0.00    0.00    0.00    0.00   11.65    0.00    0.00    0.00    0.00    0.00    0.00    0.00    0.00
  127    0.00    0.00    0.02    0.06    0.00    0.00    0.00    0.00    0.00   82.79 2.38062E+02 -5.876E-02    0.00    0.00     45.37     98.71    0.77    0.00    0.00    0.00    0.00    0.00    0.00    4.32    0.00    0.00    0.00    0.00    0.00    0.00    0.00    0.00
  128    8.20    0.01    0.03    0.06    0.00    0.00    0.00    0.00    0.00   88.24 2.38026E+02 -5.865E-02    0.00    0.00     26.38     29.72    0.92    0.00    0.11    0.00    0.00    0.00    0.00    3.97    0.00    0.00    0.00    0.00    0.00    0.00    0.00    0.00
  129    0.30    0.00    0.02    0.06    0.00    0.00    0.00    0.00    0.00   86.76 2.37988E+02 -5.854E-02    0.00    0.00     17.83     27.26    0.80    0.00    0.01    0.00    0.00    0.00    0.00    6.46    0.00    0.00    0.00    0.00    0.00    0.00    0.00    0.00
  130    0.00    0.00    0.02    0.06    0.00    0.00    0.00    0.00    0.00   81.53 2.37946E+02 -5.843E-02    0.00    0.00     52.44     85.67    0.78    0.00    0.00    0.00    0.00    0.00    0.00    7.10    0.00    0.00    0.00    0.00    0.00    0.00    0.00    0.00
  131    0.10    0.00    0.02    0.06    0.00    0.00    0.00    0.00    0.00   80.16 2.37901E+02 -5.832E-02    0.00    0.00     14.70     25.30    0.76    0.00    0.00    0.00    0.00    0.00    0.00    6.59    0.00    0.00    0.00    0.00    0.00    0.00    0.00    0.00
  132    0.00    0.00    0.02    0.06    0.00    0.00    0.00    0.00    0.00   76.48 2.37854E+02 -5.821E-02    0.00    0.00     36.95     85.21    0.75    0.00    0.00    0.00    0.00    0.00    0.00    5.34    0.00    0.00    0.00    0.00    0.00    0.00    0.00    0.00
  133    8.00    0.01    0.02    0.06    0.00    0.00    0.00    0.00    0.00   82.64 2.37804E+02 -5.810E-02    0.00    0.00     17.29     20.20    0.90    0.00    0.00    0.00    0.00    0.00    0.00    5.14    0.00    0.00    0.00    0.00    0.00    0.00    0.00    0.00
  134    6.70    0.01    0.03    0.06    0.00    0.00    0.00    0.00    0.00   87.65 2.37753E+02 -5.799E-02    0.00    0.00     15.93     17.52    0.91    0.00    0.00    0.00    0.00    0.00    0.00    4.44    0.00    0.00    0.00    0.00    0.00    0.00    0.00    0.00
  135    0.00    0.00    0.03    0.06    0.00    0.00    0.00    0.00    0.00   84.15 2.37699E+02 -5.787E-02    0.00    0.00     35.16     49.08    0.81    0.00    0.00    0.00    0.00    0.00    0.00    3.77    0.00    0.00    0.00    0.00    0.00    0.00    0.00    0.00
  136    0.00    0.00    0.02    0.06    0.00    0.00    0.00    0.00    0.00   79.90 2.37644E+02 -5.781E-02    0.00    0.00     42.51     69.61    0.78    0.00    0.00    0.00    0.00    0.00    0.00    8.01    0.00    0.00    0.00    0.00    0.00    0.00    0.00    0.00
  137    0.00    0.00    0.02    0.06    0.00    0.00    0.00    0.00    0.00   75.94 2.37119E+02 -5.738E-02    0.00    0.00     39.71     80.70    0.77    0.00    0.00    0.00    0.00    0.00    0.00    9.46    0.00    0.00    0.00    0.00    0.00    0.00    0.00    0.00
  138    0.00    0.00    0.02    0.06    0.00    0.00    0.00    0.00    0.00   72.58 2.37065E+02 -5.754E-02    0.00    0.00     33.73     65.18    0.76    0.00    0.00    0.00    0.00    0.00    0.00    9.56    0.00    0.00    0.00    0.00    0.00    0.00    0.00    0.00
  139    0.00    0.00    0.02    0.06    0.00    0.00    0.00    0.00    0.00   69.35 2.37009E+02 -5.748E-02    0.00    0.00     32.31     86.78    0.75    0.00    0.00    0.00    0.00    0.00    0.00    9.05    0.00    0.00    0.00    0.00    0.00    0.00    0.00    0.00
  140    0.00    0.00    0.02    0.05    0.00    0.00    0.00    0.00    0.00   67.02 2.36952E+02 -5.732E-02    0.00    0.00     23.42     48.37    0.74    0.00    0.00    0.00    0.00    0.00    0.00    7.17    0.00    0.00    0.00    0.00    0.00    0.00    0.00    0.00
  141    0.60    0.00    0.02    0.05    0.00    0.00    0.00    0.00    0.00   66.56 2.36606E+02 -5.721E-02    0.00    0.00     10.58     22.24    0.73    0.00    0.00    0.00    0.00    0.00    0.00    6.39    0.00    0.00    0.00    0.00    0.00    0.00    0.00    0.00
  142    0.30    0.00    0.02    0.05    0.00    0.00    0.00    0.00    0.00   65.45 2.36548E+02 -5.710E-02    0.00    0.00     14.24     29.30    0.72    0.00    0.00    0.00    0.00    0.00    0.00    3.89    0.00    0.00    0.00    0.00    0.00    0.00    0.00    0.00
  143    0.10    0.00    0.02    0.05    0.00    0.00    0.00    0.00    0.00   64.06 2.36489E+02 -5.699E-02    0.00    0.00     14.94     30.74    0.71    0.00    0.00    0.00    0.00    0.00    0.00    5.39    0.00    0.00    0.00    0.00    0.00    0.00    0.00    0.00
  144    0.00    0.00    0.02    0.05    0.00    0.00    0.00    0.00    0.00   61.70 2.37515E+02 -5.689E-02    0.00    0.00     23.64     54.91    0.70    0.00    0.00    0.00    0.00    0.00    0.00    4.73    0.00    0.00    0.00    0.00    0.00    0.00    0.00    0.00
  145    0.00    0.00    0.02    0.05    0.00    0.00    0.00    0.00    0.00   58.41 2.37454E+02 -5.677E-02    0.00    0.00     32.98     90.24    0.69    0.00    0.00    0.00    0.00    0.00    0.00    4.57    0.00    0.00    0.00    0.00    0.00    0.00    0.00    0.00
  146    0.00    0.00    0.02    0.05    0.00    0.00    0.00    0.00    0.00   55.76 2.37393E+02 -5.666E-02    0.00    0.00     26.63     80.12    0.68    0.00    0.00    0.00    0.00    0.00    0.00    5.35    0.00    0.00    0.00    0.00    0.00    0.00    0.00    0.00
  147    0.00    0.00    0.01    0.05    0.00    0.00    0.00    0.00    0.00   53.20 2.37330E+02 -5.655E-02    0.00    0.00     25.68     61.68    0.68    0.00    0.00    0.00    0.00    0.00    0.00    7.29    0.00    0.00    0.00    0.00    0.00    0.00    0.00    0.00
  148    0.00    0.00    0.01    0.05    0.00    0.00    0.00    0.00    0.00   49.67 2.37267E+02 -5.644E-02    0.00    0.00     35.30     99.97    0.67    0.00    0.00    0.00    0.00    0.00    0.00    6.39    0.00    0.00    0.00    0.00    0.00    0.00    0.00    0.00
  149    0.00    0.00    0.01    0.05    0.00    0.00    0.00    0.00    0.00   46.36 2.37549E+02 -5.634E-02    0.00    0.00     33.20    103.02    0.66    0.00    0.00    0.00    0.00    0.00    0.00    6.45    0.00    0.00    0.00    0.00    0.00    0.00    0.00    0.00
  150    0.00    0.00    0.01    0.05    0.00    0.00    0.00    0.00    0.00   43.17 2.36051E+02 -5.597E-02    0.00    0.00     32.04     81.25    0.66    0.00    0.00    0.00    0.00    0.00    0.00    3.35    0.00    0.00    0.00    0.00    0.00    0.00    0.00    0.00
  151    0.00    0.00    0.01    0.05    0.00    0.00    0.00    0.00    0.00   40.10 2.35686E+02 -5.587E-02    0.00    0.00     30.82     92.90    0.65    0.00    0.00    0.00    0.00    0.00    0.00    2.89    0.00    0.00    0.00    0.00    0.00    0.00    0.00    0.00
    5   24.30    0.04    0.65 1.71792E+00 3.64414E-02    0.00    0.00    0.00    0.00  400.97 2.35686E+02 -1.790E+00 0.000E+00 0.000E+00    964.59   1909.48     23.65      0.00      0.12      0.04      0.00      0.00      0.00    333.71      0.00      0.00      0.00      0.00      0.00      0.00      0.00      0.00
  152    0.00    0.00    0.01    0.05    0.00    0.00    0.00    0.00    0.00   36.65 2.35646E+02 -5.604E-02    0.00    0.00     34.58     96.24    0.65    0.00    0.00    0.00    0.00    0.00    0.00    2.93    0.00    0.00    0.00    0.00    0.00    0.00    0.00    0.00
  153    0.00    0.00    0.01    0.05    0.00    0.00    0.00    0.00    0.00   34.26 2.35602E+02 -5.595E-02    0.00    0.00     23.97     77.65    0.64    0.00    0.00    0.00    0.00    0.00    0.00    2.34    0.00    0.00    0.00    0.00    0.00    0.00    0.00    0.00
  154    0.00    0.00    0.01    0.05    0.00    0.00    0.00    0.00    0.00   31.36 2.35555E+02 -5.585E-02    0.00    0.00     29.14     80.66    0.64    0.00    0.00    0.00    0.00    0.00    0.00    3.55    0.00    0.00    0.00    0.00    0.00    0.00    0.00    0.00
  155    0.00    0.00    0.01    0.05    0.00    0.00    0.00    0.00    0.00   29.13 2.35505E+02 -5.575E-02    0.00    0.00     22.41     70.63    0.63    0.00    0.00    0.00    0.00    0.00    0.00    1.19    0.00    0.00    0.00    0.00    0.00    0.00    0.00    0.00
  156    0.40    0.00    0.01    0.05    0.00    0.00    0.00    0.00    0.00   28.29 2.35452E+02 -5.565E-02    0.00    0.00     12.41     43.22    0.63    0.00    0.00    0.00    0.00    0.00    0.00    4.08    0.00    0.00    0.00    0.00    0.00    0.00    0.00    0.00
  157   29.00    0.07    0.03    0.05    0.00    0.00    0.00    0.00    0.00   52.25 2.35397E+02 -5.555E-02    0.00    0.00     44.97     50.09    1.54    0.00    0.00    0.00    0.00    0.00    0.00    4.37    0.00    0.00    0.00    0.00    0.00    0.00    0.00    0.00
  158    0.00    0.00    0.03    0.05    0.00    0.00    0.00    0.00    0.00   45.75 2.35340E+02 -5.516E-02    0.00    0.00     65.09     88.35    0.88    0.00    0.00    0.00    0.00    0.00    0.00   16.63    0.00    0.00    0.00    0.00    0.00    0.00    0.00    0.00
  159    0.00    0.00    0.03    0.05    0.00    0.00    0.00    0.00    0.00   40.91 2.35315E+02 -5.532E-02    0.00    0.00     48.44     79.59    0.81    0.00    0.00    0.00    0.00    0.00    0.00    5.53    0.00    0.00    0.00    0.00    0.00    0.00    0.00    0.00
  160    0.00    0.00    0.03    0.05    0.00    0.00    0.00    0.00    0.00   35.03 2.35263E+02 -5.528E-02    0.00    0.00     58.99    111.33    0.79    0.00    0.00    0.00    0.00    0.00    0.00    0.38    0.00    0.00    0.00    0.00    0.00    0.00    0.00    0.00
  161    0.00    0.00    0.03    0.05    0.00    0.00    0.00    0.00    0.00   30.60 2.35209E+02 -5.515E-02    0.00    0.00     44.38     84.92    0.77    0.00    0.00    0.00    0.00    0.00    0.00    0.23    0.00    0.00    0.00    0.00    0.00    0.00    0.00    0.00
  162    0.00    0.00    0.02    0.05    0.00    0.00    0.00    0.00    0.00   26.68 2.35154E+02 -5.504E-02    0.00    0.00     39.26     94.24    0.75    0.00    0.00    0.00    0.00    0.00    0.00    1.02    0.00    0.00    0.00    0.00    0.00    0.00    0.00    0.00
  163    0.00    0.00    0.02    0.05    0.00    0.00    0.00    0.00    0.00   24.34 2.35096E+02 -5.494E-02    0.00    0.00     23.50     84.46    0.74    0.00    0.00    0.00    0.00    0.00    0.00    0.95    0.00    0.00    0.00    0.00    0.00    0.00    0.00    0.00
  164    0.00    0.00    0.02    0.05    0.00    0.00    0.00    0.00    0.00   23.46 2.35038E+02 -5.503E-02    0.00    0.00      8.87     70.88    0.72    0.00    0.00    0.00    0.00    0.00    0.00    0.15    0.00    0.00    0.00    0.00    0.00    0.00    0.00    0.00
  165    0.00    0.00    0.02    0.05    0.00    0.00    0.00    0.00    0.00   22.67 2.34642E+02 -5.466E-02    0.00    0.00      8.03     67.42    0.71    0.00    0.00    0.00    0.00    0.00    0.00    0.21    0.00    0.00    0.00    0.00    0.00    0.00    0.00    0.00
  166    0.00    0.00    0.02    0.05    0.00    0.00    0.00    0.00    0.00   21.74 2.33480E+02 -5.438E-02    0.00    0.00      9.40     84.59    0.70    0.00    0.00    0.00    0.00    0.00    0.00    0.19    0.00    0.00    0.00    0.00    0.00    0.00    0.00    0.00
  167    0.00    0.00    0.02    0.05    0.00    0.00    0.00    0.00    0.00   20.78 2.33444E+02 -5.455E-02    0.00    0.00      9.67     86.23    0.69    0.00    0.00    0.00    0.00    0.00    0.00    0.15    0.00    0.00    0.00    0.00    0.00    0.00    0.00    0.00
  168    0.00    0.00    0.02    0.05    0.00    0.00    0.00    0.00    0.00   19.69 2.33405E+02 -5.445E-02    0.00    0.00     11.02    103.03    0.68    0.00    0.00    0.00    0.00    0.00    0.00    0.14    0.00    0.00    0.00    0.00    0.00    0.00    0.00    0.00
  169   13.70    0.03    0.03    0.05    0.00    0.00    0.00    0.00    0.00   31.18 2.33364E+02 -5.435E-02    0.00    0.00     20.10     25.95    1.02    0.00    0.00    0.00    0.00    0.00    0.00    0.14    0.00    0.00    0.00    0.00    0.00    0.00    0.00    0.00
  170    0.00    0.00    0.02    0.05    0.00    0.00    0.00    0.00    0.00   26.00 2.34749E+02 -5.427E-02    0.00    0.00     51.85     76.79    0.76    0.00    0.00    0.00    0.00    0.00    0.00    0.19    0.00    0.00    0.00    0.00    0.00    0.00    0.00    0.00
  171    0.10    0.00    0.02    0.05    0.00    0.00    0.00    0.00    0.00   24.69 2.34704E+02 -5.416E-02    0.00    0.00     14.14     24.10    0.73    0.00    0.00    0.00    0.00    0.00    0.00    0.18    0.00    0.00    0.00    0.00    0.00    0.00    0.00    0.00
  172    4.00    0.00    0.02    0.05    0.00    0.00    0.00    0.00    0.00   26.33 2.34657E+02 -5.406E-02    0.00    0.00     23.20     30.92    0.76    0.00    0.00    0.00    0.00    0.00    0.00    0.17    0.00    0.00    0.00    0.00    0.00    0.00    0.00    0.00
  173    5.30    0.01    0.02    0.05    0.00    0.00    0.00    0.00    0.00   28.60 2.34607E+02 -5.396E-02    0.00    0.00     29.63     38.32    0.80    0.00    0.00    0.00    0.00    0.00    0.00    0.17    0.00    0.00    0.00    0.00    0.00    0.00    0.00    0.00
  174   12.40    0.02    0.03    0.05    0.00    0.00    0.00    0.00    0.00   39.25 2.33910E+02 -5.387E-02    0.00    0.00     15.66     18.56    1.04    0.00    0.00    0.00    0.00    0.00    0.00    0.18    0.00    0.00    0.00    0.00    0.00    0.00    0.00    0.00
  175    0.00    0.00    0.03    0.05    0.00    0.00    0.00    0.00    0.00   33.10 2.33864E+02 -5.377E-02    0.00    0.00     61.59     78.92    0.81    0.00    0.00    0.00    0.00    0.00    0.00    0.19    0.00    0.00    0.00    0.00    0.00    0.00    0.00    0.00
  176    0.00    0.00    0.03    0.05    0.00    0.00    0.00    0.00    0.00   27.97 2.33814E+02 -5.368E-02    0.00    0.00     51.32     90.81    0.77    0.00    0.00    0.00    0.00    0.00    0.00    0.20    0.00    0.00    0.00    0.00    0.00    0.00    0.00    0.00
  177    0.00    0.00    0.03    0.05    0.00    0.00    0.00    0.00    0.00   23.51 2.33234E+02 -5.358E-02    0.00    0.00     44.77     81.19    0.76    0.00    0.00    0.00    0.00    0.00    0.00    0.78    0.00    0.00    0.00    0.00    0.00    0.00    0.00    0.00
  178    2.70    0.00    0.03    0.05    0.00    0.00    0.00    0.00    0.00   23.34 2.32762E+02 -5.323E-02    0.00    0.00     28.51     39.10    0.76    0.00    0.00    0.00    0.00    0.00    0.00    1.04    0.00    0.00    0.00    0.00    0.00    0.00    0.00    0.00
  179    0.00    0.00    0.02    0.05    0.00    0.00    0.00    0.00    0.00   19.41 2.31114E+02 -5.314E-02    0.00    0.00     39.45     79.30    0.73    0.00    0.00    0.00    0.00    0.00    0.00    0.62    0.00    0.00    0.00    0.00    0.00    0.00    0.00    0.00
  180    0.00    0.00    0.02    0.05    0.00    0.00    0.00    0.00    0.00   17.73 2.31072E+02 -5.330E-02    0.00    0.00     16.83     75.29    0.72    0.00    0.00    0.00    0.00    0.00    0.00    0.99    0.00    0.00    0.00    0.00    0.00    0.00    0.00    0.00
  181    0.00    0.00    0.02    0.05    0.00    0.00    0.00    0.00    0.00   16.51 2.31027E+02 -5.321E-02    0.00    0.00     12.35    101.47    0.71    0.00    0.00    0.00    0.00    0.00    0.00    0.20    0.00    0.00    0.00    0.00    0.00    0.00    0.00    0.00
    6   67.60    0.14    0.67 1.56448E+00 3.66431E-02    0.00    0.00    0.00    0.00  165.07 2.31027E+02 -1.637E+00 0.000E+00 0.000E+00    903.54   2134.27     23.34      0.00      0.00      0.02      0.00      0.00      0.00     49.12      0.00      0.00      0.00      0.00      0.00      0.00      0.00      0.00
  182    0.00    0.00    0.02    0.05    0.00    0.00    0.00    0.00    0.00   15.57 2.30341E+02 -5.311E-02    0.00    0.00      9.46     73.57    0.70    0.00    0.00    0.00    0.00    0.00    0.00    0.12    0.00    0.00    0.00    0.00    0.00    0.00    0.00    0.00
  183    5.80    0.01    0.02    0.05    0.00    0.00    0.00    0.00    0.00   19.56 2.29871E+02 -5.278E-02    0.00    0.00     17.41     22.69    0.78    0.00    0.00    0.00    0.00    0.00    0.00    0.12    0.00    0.00    0.00    0.00    0.00    0.00    0.00    0.00
  184   12.30    0.02    0.03    0.05    0.00    0.00    0.00    0.00    0.00   30.94 2.29826E+02 -5.296E-02    0.00    0.00      7.28      8.84    1.02    0.00    0.00    0.00    0.00    0.00    0.00    0.15    0.00    0.00    0.00    0.00    0.00    0.00    0.00    0.00
  185    0.10    0.00    0.03    0.05    0.00    0.00    0.00    0.00    0.00   28.64 2.29779E+02 -5.288E-02    0.00    0.00     24.03     30.26    0.79    0.00    0.00    0.00    0.00    0.00    0.00    0.18    0.00    0.00    0.00    0.00    0.00    0.00    0.00    0.00
  186    0.00    0.00    0.03    0.05    0.00    0.00    0.00    0.00    0.00   23.63 2.29729E+02 -5.279E-02    0.00    0.00     50.09     79.35    0.75    0.00    0.00    0.00    0.00    0.00    0.00    0.17    0.00    0.00    0.00    0.00    0.00    0.00    0.00    0.00
  187    0.00    0.00    0.02    0.05    0.00    0.00    0.00    0.00    0.00   18.12 2.29962E+02 -5.272E-02    0.00    0.00     55.25    103.19    0.74    0.00    0.00    0.00    0.00    0.00    0.00    0.93    0.00    0.00    0.00    0.00    0.00    0.00    0.00    0.00
  188    0.00    0.00    0.02    0.05    0.00    0.00    0.00    0.00    0.00   14.59 2.29909E+02 -5.262E-02    0.00    0.00     35.34     90.32    0.72    0.00    0.00    0.00    0.00    0.00    0.00    0.88    0.00    0.00    0.00    0.00    0.00    0.00    0.00    0.00
  189    0.00    0.00    0.02    0.05    0.00    0.00    0.00    0.00    0.00   13.52 2.29855E+02 -5.254E-02    0.00    0.00     10.84     85.20    0.71    0.00    0.00    0.00    0.00    0.00    0.00    0.65    0.00    0.00    0.00    0.00    0.00    0.00    0.00    0.00
  190    0.00    0.00    0.02    0.05    0.00    0.00    0.00    0.00    0.00   12.22 2.29800E+02 -5.245E-02    0.00    0.00     13.06    127.35    0.70    0.00    0.00    0.00    0.00    0.00    0.00    0.13    0.00    0.00    0.00    0.00    0.00    0.00    0.00    0.00
  191    0.00    0.00    0.02    0.05    0.00    0.00    0.00    0.00    0.00   11.10 2.29744E+02 -5.237E-02    0.00    0.00     11.35    102.07    0.69    0.00    0.00    0.00    0.00    0.00    0.00    0.12    0.00    0.00    0.00    0.00    0.00    0.00    0.00    0.00
  192    1.00    0.00    0.02    0.05    0.00    0.00    0.00    0.00    0.00   11.38 2.29687E+02 -5.228E-02    0.00    0.00      7.20     36.31    0.68    0.00    0.00    0.00    0.00    0.00    0.00    0.12    0.00    0.00    0.00    0.00    0.00    0.00    0.00    0.00
  193    0.00    0.00    0.02    0.05    0.00    0.00    0.00    0.00    0.00    9.88 2.29629E+02 -5.219E-02    0.00    0.00     15.14     91.48    0.67    0.00    0.00    0.00    0.00    0.00    0.00    0.12    0.00    0.00    0.00    0.00    0.00    0.00    0.00    0.00
  194    0.00    0.00    0.02    0.05    0.00    0.00    0.00    0.00    0.00    8.92 2.29570E+02 -5.211E-02    0.00    0.00      9.70     80.54    0.66    0.00    0.00    0.00    0.00    0.00    0.00    0.12    0.00    0.00    0.00    0.00    0.00    0.00    0.00    0.00
  195    0.00    0.00    0.02    0.05    0.00    0.00    0.00    0.00    0.00    8.20 2.29511E+02 -5.202E-02    0.00    0.00      7.21     67.97    0.65    0.00    0.00    0.00    0.00    0.00    0.00    0.12    0.00    0.00    0.00    0.00    0.00    0.00    0.00    0.00
  196    0.10    0.00    0.02    0.05    0.00    0.00    0.00    0.00    0.00    7.93 2.28838E+02 -5.169E-02    0.00    0.00      3.82     29.49    0.64    0.00    0.00    0.00    0.00    0.00    0.00    0.12    0.00    0.00    0.00    0.00    0.00    0.00    0.00    0.00
  197    1.10    0.00    0.02    0.05    0.00    0.00    0.00    0.00    0.00    8.19 2.28783E+02 -5.185E-02    0.00    0.00      8.45     38.74    0.64    0.00    0.00    0.00    0.00    0.00    0.00    0.11    0.00    0.00    0.00    0.00    0.00    0.00    0.00    0.00
  198    0.00    0.00    0.01    0.05    0.00    0.00    0.00    0.00    0.00    6.88 2.28727E+02 -5.176E-02    0.00    0.00     13.18     80.82    0.63    0.00    0.00    0.00    0.00    0.00    0.00    0.11    0.00    0.00    0.00    0.00    0.00    0.00    0.00    0.00
  199    0.20    0.00    0.01    0.05    0.00    0.00    0.00    0.00    0.00    6.76 2.28670E+02 -5.168E-02    0.00    0.00      3.25     21.69    0.62    0.00    0.00    0.00    0.00    0.00    0.00    0.13    0.00    0.00    0.00    0.00    0.00    0.00    0.00    0.00
  200    0.10    0.00    0.01    0.05    0.00    0.00    0.00    0.00    0.00    6.52 2.28140E+02 -5.159E-02    0.00    0.00      3.40     21.49    0.62    0.00    0.00    0.00    0.00    0.00    0.00    0.12    0.00    0.00    0.00    0.00    0.00    0.00    0.00    0.00
  201    7.70    0.01    0.02    0.05    0.00    0.00    0.00    0.00    0.00   12.33 2.28086E+02 -5.151E-02    0.00    0.00     17.93     24.30    0.76    0.00    0.00    0.00    0.00    0.00    0.00    0.11    0.00    0.00    0.00    0.00    0.00    0.00    0.00    0.00
  202    1.40    0.00    0.02    0.05    0.00    0.00    0.00    0.00    0.00   10.37 2.28030E+02 -5.142E-02    0.00    0.00     33.55     43.08    0.66    0.00    0.00    0.00    0.00    0.00    0.00    0.17    0.00    0.00    0.00    0.00    0.00    0.00    0.00    0.00
  203    1.20    0.00    0.02    0.05    0.00    0.00    0.00    0.00    0.00    9.71 2.27973E+02 -5.134E-02    0.00    0.00     18.62     24.94    0.64    0.00    0.00    0.00    0.00    0.00    0.00    0.62    0.00    0.00    0.00    0.00    0.00    0.00    0.00    0.00
  204    2.00    0.00    0.02    0.05    0.00    0.00    0.00    0.00    0.00   10.11 2.27284E+02 -5.101E-02    0.00    0.00     15.88     22.77    0.64    0.00    0.00    0.00    0.00    0.00    0.00    0.49    0.00    0.00    0.00    0.00    0.00    0.00    0.00    0.00
  205    0.00    0.00    0.02    0.05    0.00    0.00    0.00    0.00    0.00    6.19 2.27235E+02 -5.117E-02    0.00    0.00     39.27     84.30    0.63    0.00    0.00    0.00    0.00    0.00    0.00    0.48    0.00    0.00    0.00    0.00    0.00    0.00    0.00    0.00
  206    0.00    0.00    0.01    0.05    0.00    0.00    0.00    0.00    0.00    4.80 2.27185E+02 -5.109E-02    0.00    0.00     13.93     99.98    0.62    0.00    0.00    0.00    0.00    0.00    0.00    0.63    0.00    0.00    0.00    0.00    0.00    0.00    0.00    0.00
  207    0.00    0.00    0.01    0.05    0.00    0.00    0.00    0.00    0.00    3.85 2.27134E+02 -5.101E-02    0.00    0.00      9.63     89.88    0.61    0.00    0.00    0.00    0.00    0.00    0.00    0.13    0.00    0.00    0.00    0.00    0.00    0.00    0.00    0.00
  208    0.00    0.00    0.01    0.05    0.00    0.00    0.00    0.00    0.00    3.09 2.27083E+02 -5.093E-02    0.00    0.00      7.67     83.00    0.61    0.00    0.00    0.00    0.00    0.00    0.00    0.11    0.00    0.00    0.00    0.00    0.00    0.00    0.00    0.00
  209    0.00    0.00    0.01    0.05    0.00    0.00    0.00    0.00    0.00    2.32 2.27030E+02 -5.085E-02    0.00    0.00      7.85     96.20    0.60    0.00    0.00    0.00    0.00    0.00    0.00    0.12    0.00    0.00    0.00    0.00    0.00    0.00    0.00    0.00
  210    0.00    0.00    0.01    0.05    0.00    0.00    0.00    0.00    0.00    1.58 2.26337E+02 -5.052E-02    0.00    0.00      7.43    101.34    0.60    0.00    0.00    0.00    0.00    0.00    0.00    0.12    0.00    0.00    0.00    0.00    0.00    0.00    0.00    0.00
  211    0.00    0.00    0.01    0.05    0.00    0.00    0.00    0.00    0.00    1.29 2.26290E+02 -5.068E-02    0.00    0.00      3.06    123.07    0.59    0.00    0.00    0.00    0.00    0.00    0.00    0.11    0.00    0.00    0.00    0.00    0.00    0.00    0.00    0.00
  212    0.00    0.00    0.01    0.05    0.00    0.00    0.00    0.00    0.00    1.08 2.26241E+02 -5.060E-02    0.00    0.00      2.13     86.16    0.58    0.00    0.00    0.00    0.00    0.00    0.00    0.11    0.00    0.00    0.00    0.00    0.00    0.00    0.00    0.00
    7   33.00    0.04    0.56 1.53296E+00 3.94196E-02    0.00    0.00    0.00    0.00   10.84 2.26241E+02 -1.607E+00 0.000E+00 0.000E+00    482.42   2070.40     20.95      0.00      0.00      0.01      0.00      0.00      0.00      7.69      0.00      0.00      0.00      0.00      0.00      0.00      0.00      0.00
  213    0.00    0.00    0.01    0.05    0.00    0.00    0.00    0.00    0.00    0.85 2.26192E+02 -5.052E-02    0.00    0.00      2.44     90.41    0.58    0.00    0.00    0.00    0.00    0.00    0.00    0.12    0.00    0.00    0.00    0.00    0.00    0.00    0.00    0.00
  214    0.00    0.00    0.01    0.05    0.00    0.00    0.00    0.00    0.00    0.71 2.26141E+02 -5.044E-02    0.00    0.00      1.48     87.97    0.57    0.00    0.00    0.00    0.00    0.00    0.00    0.10    0.00    0.00    0.00    0.00    0.00    0.00    0.00    0.00
  215    0.10    0.00    0.01    0.05    0.00    0.00    0.00    0.00    0.00    0.69 2.26090E+02 -5.036E-02    0.00    0.00      1.25     23.66    0.57    0.00    0.00    0.00    0.00    0.00    0.00    0.11    0.00    0.00    0.00    0.00    0.00    0.00    0.00    0.00
  216    0.00    0.00    0.01    0.05    0.00    0.00    0.00    0.00    0.00    0.56 2.26038E+02 -5.028E-02    0.00    0.00      1.42     77.13    0.57    0.00    0.00    0.00    0.00    0.00    0.00    0.11    0.00    0.00    0.00    0.00    0.00    0.00    0.00    0.00
  217    0.00    0.00    0.01    0.05    0.00    0.00    0.00    0.00    0.00    0.44 2.25985E+02 -5.021E-02    0.00    0.00      1.21    132.08    0.56    0.00    0.00    0.00    0.00    0.00    0.00    0.11    0.00    0.00    0.00    0.00    0.00    0.00    0.00    0.00
  218    0.00    0.00    0.01    0.05    0.00    0.00    0.00    0.00    0.00    0.39 2.25931E+02 -5.013E-02    0.00    0.00      0.66     80.67    0.56    0.00    0.00    0.00    0.00    0.00    0.00    0.10    0.00    0.00    0.00    0.00    0.00    0.00    0.00    0.00
  219    0.00    0.00    0.01    0.07    0.00    0.00    0.00    0.00    0.00    0.32 2.25855E+02 -7.091E-02    0.00    0.00      0.73     90.80    0.77    0.00    0.00    0.00    0.00    0.00    0.00    0.08    0.00    0.00    0.00    0.00    0.00    0.00    0.00    0.00
  220    0.00    0.00    0.01    0.04    0.00    0.00    0.00    0.00    0.00    0.27 2.25813E+02 -3.605E-02    0.00    0.00      0.67     93.73    0.41    0.00    0.00    0.00    0.00    0.00    0.00    0.08    0.00    0.00    0.00    0.00    0.00    0.00    0.00    0.00
  221    0.00    0.00    0.01    0.07    0.00    0.00    0.00    0.00    0.00    0.22 2.25739E+02 -6.747E-02    0.00    0.00      0.59     89.37    0.73    0.00    0.00    0.00    0.00    0.00    0.00    0.08    0.00    0.00    0.00    0.00    0.00    0.00    0.00    0.00
  222    0.00    0.00    0.01    0.03    0.00    0.00    0.00    0.00    0.00    0.17 2.25697E+02 -3.509E-02    0.00    0.00      0.54     79.72    0.40    0.00    0.00    0.00    0.00    0.00    0.00    0.09    0.00    0.00    0.00    0.00    0.00    0.00    0.00    0.00
  223    0.00    0.00    0.01    0.07    0.00    0.00    0.00    0.00    0.00    0.13 2.25622E+02 -6.710E-02    0.00    0.00      0.53    124.35    0.72    0.00    0.00    0.00    0.00    0.00    0.00    0.09    0.00    0.00    0.00    0.00    0.00    0.00    0.00    0.00
  224    0.00    0.00    0.01    0.03    0.00    0.00    0.00    0.00    0.00    0.10 2.25871E+02 -3.487E-02    0.00    0.00      0.37     94.24    0.39    0.00    0.00    0.00    0.00    0.00    0.00    0.08    0.00    0.00    0.00    0.00    0.00    0.00    0.00    0.00
  225    0.30    0.00    0.01    0.06    0.00    0.00    0.00    0.00    0.00    0.17 2.25796E+02 -6.692E-02    0.00    0.00      2.39     35.88    0.71    0.00    0.00    0.00    0.00    0.00    0.00    0.08    0.00    0.00    0.00    0.00    0.00    0.00    0.00    0.00
  226    1.60    0.00    0.01    0.03    0.00    0.00    0.00    0.00    0.00    1.10 2.25752E+02 -3.469E-02    0.00    0.00      6.73     37.99    0.39    0.00    0.00    0.00    0.00    0.00    0.00    0.08    0.00    0.00    0.00    0.00    0.00    0.00    0.00    0.00
  227    5.30    0.01    0.01    0.06    0.00    0.00    0.00    0.00    0.00    4.73 2.25675E+02 -6.675E-02    0.00    0.00     16.05     25.37    0.79    0.00    0.00    0.00    0.00    0.00    0.00    0.08    0.00    0.00    0.00    0.00    0.00    0.00    0.00    0.00
  228    4.30    0.00    0.01    0.03    0.00    0.00    0.00    0.00    0.00    7.11 2.25630E+02 -3.453E-02    0.00    0.00     18.68     28.49    0.47    0.00    0.00    0.00    0.00    0.00    0.00    0.11    0.00    0.00    0.00    0.00    0.00    0.00    0.00    0.00
  229    0.40    0.00    0.01    0.06    0.00    0.00    0.00    0.00    0.00    6.03 2.25553E+02 -6.658E-02    0.00    0.00     14.87     26.74    0.75    0.00    0.00    0.00    0.00    0.00    0.00    0.12    0.00    0.00    0.00    0.00    0.00    0.00    0.00    0.00
  230    0.00    0.00    0.01    0.03    0.00    0.00    0.00    0.00    0.00    2.15 2.24412E+02 -3.422E-02    0.00    0.00     38.89     85.94    0.41    0.00    0.00    0.00    0.00    0.00    0.00    0.11    0.00    0.00    0.00    0.00    0.00    0.00    0.00    0.00
  231    0.00    0.00    0.01    0.06    0.00    0.00    0.00    0.00    0.00    1.24 2.24344E+02 -6.642E-02    0.00    0.00      9.16    120.05    0.73    0.00    0.00    0.00    0.00    0.00    0.00    0.08    0.00    0.00    0.00    0.00    0.00    0.00    0.00    0.00
  232    0.00    0.00    0.01    0.03    0.00    0.00    0.00    0.00    0.00    1.01 2.24307E+02 -3.420E-02    0.00    0.00      2.43     67.91    0.40    0.00    0.00    0.00    0.00    0.00    0.00    0.08    0.00    0.00    0.00    0.00    0.00    0.00    0.00    0.00
  233    0.20    0.00    0.01    0.06    0.00    0.00    0.00    0.00    0.00    0.96 2.24236E+02 -6.626E-02    0.00    0.00      2.59     38.68    0.72    0.00    0.00    0.00    0.00    0.00    0.00    0.00    0.00    0.00    0.00    0.00    0.00    0.00    0.00    0.00
  234    0.00    0.00    0.01    0.03    0.00    0.00    0.00    0.00    0.00    0.73 2.24197E+02 -3.403E-02    0.00    0.00      2.40    116.98    0.39    0.00    0.00    0.00    0.00    0.00    0.00    0.00    0.00    0.00    0.00    0.00    0.00    0.00    0.00    0.00
  235    0.00    0.00    0.01    0.06    0.00    0.00    0.00    0.00    0.00    0.52 2.23571E+02 -6.609E-02    0.00    0.00      2.18    122.15    0.71    0.00    0.00    0.00    0.00    0.00    0.00    0.00    0.00    0.00    0.00    0.00    0.00    0.00    0.00    0.00
  236    0.00    0.00    0.01    0.03    0.00    0.00    0.00    0.00    0.00    0.37 2.23533E+02 -3.387E-02    0.00    0.00      1.54     85.73    0.38    0.00    0.00    0.00    0.00    0.00    0.00    0.00    0.00    0.00    0.00    0.00    0.00    0.00    0.00    0.00
  237    0.80    0.00    0.01    0.06    0.00    0.00    0.00    0.00    0.00    0.88 2.23460E+02 -6.594E-02    0.00    0.00      2.91     27.65    0.70    0.00    0.00    0.00    0.00    0.00    0.00    0.00    0.00    0.00    0.00    0.00    0.00    0.00    0.00    0.00
  238    0.00    0.00    0.01    0.03    0.00    0.00    0.00    0.00    0.00    0.26 2.23579E+02 -3.372E-02    0.00    0.00      6.33     89.77    0.38    0.00    0.00    0.00    0.00    0.00    0.00    0.00    0.00    0.00    0.00    0.00    0.00    0.00    0.00    0.00
  239    0.00    0.00    0.01    0.06    0.00    0.00    0.00    0.00    0.00    0.13 2.22712E+02 -6.577E-02    0.00    0.00      1.39    106.49    0.70    0.00    0.00    0.00    0.00    0.00    0.00    0.00    0.00    0.00    0.00    0.00    0.00    0.00    0.00    0.00
  240    0.00    0.00    0.01    0.03    0.00    0.00    0.00    0.00    0.00    0.09 2.22675E+02 -3.355E-02    0.00    0.00      0.51     59.44    0.37    0.00    0.00    0.00    0.00    0.00    0.00    0.00    0.00    0.00    0.00    0.00    0.00    0.00    0.00    0.00
  241    0.00    0.00    0.01    0.06    0.00    0.00    0.00    0.00    0.00    0.06 2.22603E+02 -6.562E-02    0.00    0.00      0.33     74.81    0.69    0.00    0.00    0.00    0.00    0.00    0.00    0.00    0.00    0.00    0.00    0.00    0.00    0.00    0.00    0.00
  242    0.00    0.00    0.01    0.03    0.00    0.00    0.00    0.00    0.00    0.05 2.22564E+02 -3.340E-02    0.00    0.00      0.21    123.71    0.36    0.00    0.00    0.00    0.00    0.00    0.00    0.00    0.00    0.00    0.00    0.00    0.00    0.00    0.00    0.00
  243    0.00    0.00    0.01    0.06    0.00    0.00    0.00    0.00    0.00    0.05 2.22491E+02 -6.547E-02    0.00    0.00      0.12     85.48    0.68    0.00    0.00    0.00    0.00    0.00    0.00    0.00    0.00    0.00    0.00    0.00    0.00    0.00    0.00    0.00
    8   13.00    0.01    0.26 1.53930E+00 5.71747E-02    0.00    0.00    0.00    0.00    0.50 2.22491E+02 -1.581E+00 0.000E+00 0.000E+00    141.59   2423.37     17.57      0.00      0.00      0.01      0.00      0.00      0.00      1.89      0.00      0.00      0.00      0.00      0.00      0.00      0.00      0.00
  244    0.00    0.00    0.01    0.03    0.00    0.00    0.00    0.00    0.00    0.05 2.22450E+02 -3.324E-02    0.00    0.00      0.08    105.55    0.36    0.00    0.00    0.00    0.00    0.00    0.00    0.00    0.00    0.00    0.00    0.00    0.00    0.00    0.00    0.00
  245    0.00    0.00    0.01    0.06    0.00    0.00    0.00    0.00    0.00    0.05 2.22376E+02 -6.531E-02    0.00    0.00      0.07     83.60    0.68    0.00    0.00    0.00    0.00    0.00    0.00    0.00    0.00    0.00    0.00    0.00    0.00    0.00    0.00    0.00
  246    0.00    0.00    0.01    0.03    0.00    0.00    0.00    0.00    0.00    0.05 2.22334E+02 -3.309E-02    0.00    0.00      0.07     74.52    0.35    0.00    0.00    0.00    0.00    0.00    0.00    0.00    0.00    0.00    0.00    0.00    0.00    0.00    0.00    0.00
  247    0.00    0.00    0.01    0.06    0.00    0.00    0.00    0.00    0.00    0.05 2.22259E+02 -6.516E-02    0.00    0.00      0.07     76.81    0.67    0.00    0.00    0.00    0.00    0.00    0.00    0.00    0.00    0.00    0.00    0.00    0.00    0.00    0.00    0.00
  248    6.60    0.01    0.01    0.03    0.00    0.00    0.00    0.00    0.00    4.45 2.22745E+02 -3.294E-02    0.00    0.00     21.20     33.14    0.47    0.00    0.01    0.00    0.00    0.00    0.00    0.00    0.00    0.00    0.00    0.00    0.00    0.00    0.00    0.00
  249    1.40    0.00    0.01    0.06    0.00    0.00    0.00    0.00    0.00    3.73 2.22669E+02 -6.501E-02    0.00    0.00     21.22     32.57    0.71    0.00    0.00    0.00    0.00    0.00    0.00    0.00    0.00    0.00    0.00    0.00    0.00    0.00    0.00    0.00
  250    0.20    0.00    0.01    0.03    0.00    0.00    0.00    0.00    0.00    1.93 2.22625E+02 -3.279E-02    0.00    0.00     20.01     51.15    0.37    0.00    0.00    0.00    0.00    0.00    0.00    0.00    0.00    0.00    0.00    0.00    0.00    0.00    0.00    0.00
  251    0.00    0.00    0.01    0.06    0.00    0.00    0.00    0.00    0.00    0.83 2.22548E+02 -6.486E-02    0.00    0.00     11.06     77.28    0.69    0.00    0.00    0.00    0.00    0.00    0.00    0.00    0.00    0.00    0.00    0.00    0.00    0.00    0.00    0.00
  252    0.00    0.00    0.01    0.03    0.00    0.00    0.00    0.00    0.00    0.51 2.22504E+02 -3.264E-02    0.00    0.00      3.25     82.07    0.36    0.00    0.00    0.00    0.00    0.00    0.00    0.00    0.00    0.00    0.00    0.00    0.00    0.00    0.00    0.00
  253    0.60    0.00    0.01    0.06    0.00    0.00    0.00    0.00    0.00    0.81 2.22426E+02 -6.471E-02    0.00    0.00      3.11     31.96    0.68    0.00    0.00    0.00    0.00    0.00    0.00    0.00    0.00    0.00    0.00    0.00    0.00    0.00    0.00    0.00
  254    6.40    0.01    0.01    0.03    0.00    0.00    0.00    0.00    0.00    5.98 2.22381E+02 -3.249E-02    0.00    0.00     11.51     23.27    0.47    0.00    0.00    0.00    0.00    0.00    0.00    0.00    0.00    0.00    0.00    0.00    0.00    0.00    0.00    0.00
  255   12.10    0.02    0.02    0.06    0.00    0.00    0.00    0.00    0.00   15.94 2.22304E+02 -6.456E-02    0.00    0.00     19.44     27.80    1.01    0.00    0.00    0.00    0.00    0.00    0.00    0.00    0.00    0.00    0.00    0.00    0.00    0.00    0.00    0.00
  256    1.60    0.00    0.02    0.03    0.00    0.00    0.00    0.00    0.00   16.36 2.22258E+02 -3.234E-02    0.00    0.00     11.79     17.22    0.47    0.00    0.00    0.00    0.00    0.00    0.00    0.00    0.00    0.00    0.00    0.00    0.00    0.00    0.00    0.00
  257    6.00    0.01    0.02    0.06    0.00    0.00    0.00    0.00    0.00   20.37 2.22180E+02 -6.442E-02    0.00    0.00     19.10     25.98    0.88    0.00    0.00    0.00    0.00    0.00    0.00    0.00    0.00    0.00    0.00    0.00    0.00    0.00    0.00    0.00
  258    1.20    0.00    0.02    0.03    0.00    0.00    0.00    0.00    0.00   20.38 2.22134E+02 -3.220E-02    0.00    0.00     11.85     16.69    0.47    0.00    0.00    0.00    0.00    0.00    0.00    0.00    0.00    0.00    0.00    0.00    0.00    0.00    0.00    0.00
  259    0.00    0.00    0.02    0.06    0.00    0.00    0.00    0.00    0.00   16.75 2.22522E+02 -6.428E-02    0.00    0.00     36.41     77.05    0.78    0.00    0.00    0.00    0.00    0.00    0.00    0.00    0.00    0.00    0.00    0.00    0.00    0.00    0.00    0.00
  260    0.00    0.00    0.02    0.03    0.00    0.00    0.00    0.00    0.00   14.58 2.22476E+02 -3.205E-02    0.00    0.00     21.76     81.65    0.44    0.00    0.00    0.00    0.00    0.00    0.00    0.00    0.00    0.00    0.00    0.00    0.00    0.00    0.00    0.00
  261    0.00    0.00    0.01    0.06    0.00    0.00    0.00    0.00    0.00   13.37 2.22397E+02 -6.414E-02    0.00    0.00     12.16     57.73    0.76    0.00    0.00    0.00    0.00    0.00    0.00    0.00    0.00    0.00    0.00    0.00    0.00    0.00    0.00    0.00
  262    0.00    0.00    0.01    0.03    0.00    0.00    0.00    0.00    0.00   12.37 2.22351E+02 -3.191E-02    0.00    0.00     10.00     60.60    0.42    0.00    0.00    0.00    0.00    0.00    0.00    0.00    0.00    0.00    0.00    0.00    0.00    0.00    0.00    0.00
  263    0.00    0.00    0.01    0.06    0.00    0.00    0.00    0.00    0.00   11.54 2.22271E+02 -6.400E-02    0.00    0.00      8.41     58.59    0.74    0.00    0.00    0.00    0.00    0.00    0.00    0.00    0.00    0.00    0.00    0.00    0.00    0.00    0.00    0.00
  264    0.00    0.00    0.01    0.03    0.00    0.00    0.00    0.00    0.00   10.71 2.22225E+02 -3.177E-02    0.00    0.00      8.38     63.61    0.41    0.00    0.00    0.00    0.00    0.00    0.00    0.00    0.00    0.00    0.00    0.00    0.00    0.00    0.00    0.00
  265    0.00    0.00    0.01    0.06    0.00    0.00    0.00    0.00    0.00    9.79 2.22540E+02 -6.386E-02    0.00    0.00      9.26     76.12    0.72    0.00    0.00    0.00    0.00    0.00    0.00    0.00    0.00    0.00    0.00    0.00    0.00    0.00    0.00    0.00
  266    0.00    0.00    0.01    0.03    0.00    0.00    0.00    0.00    0.00    9.10 2.22493E+02 -3.163E-02    0.00    0.00      6.98     61.98    0.40    0.00    0.00    0.00    0.00    0.00    0.00    0.00    0.00    0.00    0.00    0.00    0.00    0.00    0.00    0.00
  267    0.00    0.00    0.01    0.06    0.00    0.00    0.00    0.00    0.00    8.37 2.22413E+02 -6.372E-02    0.00    0.00      7.39     69.16    0.71    0.00    0.00    0.00    0.00    0.00    0.00    0.00    0.00    0.00    0.00    0.00    0.00    0.00    0.00    0.00
  268    1.40    0.00    0.01    0.03    0.00    0.00    0.00    0.00    0.00    9.10 2.22367E+02 -3.149E-02    0.00    0.00      6.74     23.97    0.38    0.00    0.00    0.00    0.00    0.00    0.00    0.00    0.00    0.00    0.00    0.00    0.00    0.00    0.00    0.00
  269    0.00    0.00    0.01    0.06    0.00    0.00    0.00    0.00    0.00    7.78 2.22287E+02 -6.358E-02    0.00    0.00     13.28     66.79    0.70    0.00    0.00    0.00    0.00    0.00    0.00    0.00    0.00    0.00    0.00    0.00    0.00    0.00    0.00    0.00
  270    0.00    0.00    0.01    0.03    0.00    0.00    0.00    0.00    0.00    6.87 2.22240E+02 -3.135E-02    0.00    0.00      9.15     73.15    0.37    0.00    0.00    0.00    0.00    0.00    0.00    0.00    0.00    0.00    0.00    0.00    0.00    0.00    0.00    0.00
  271   10.20    0.02    0.01    0.06    0.00    0.00    0.00    0.00    0.00   15.08 2.22161E+02 -6.344E-02    0.00    0.00     18.45     29.02    0.92    0.00    0.01    0.00    0.00    0.00    0.00    0.00    0.00    0.00    0.00    0.00    0.00    0.00    0.00    0.00
  272   18.40    0.04    0.03    0.03    0.00    0.00    0.00    0.00    0.00   31.14 2.22113E+02 -3.121E-02    0.00    0.00     20.00     24.82    0.97    0.00    0.00    0.00    0.00    0.00    0.00    0.00    0.00    0.00    0.00    0.00    0.00    0.00    0.00    0.00
  273    0.50    0.00    0.03    0.04    0.00    0.00    0.00    0.00    0.00   31.01 2.22055E+02 -4.217E-02    0.00    0.00      6.29      9.72    0.68    0.00    0.00    0.00    0.00    0.00    0.00    0.00    0.00    0.00    0.00    0.00    0.00    0.00    0.00    0.00
    9   66.60    0.11    0.36 1.40079E+00 6.59756E-02    0.00    0.00    0.00    0.00  310.14 2.22055E+02 -1.426E+00 0.000E+00 0.000E+00    348.48   1593.57     18.07      0.00      0.03      0.01      0.00      0.00      0.00      0.00      0.01      0.00      0.00      0.00      0.00      0.00      0.00      0.00
  274    0.00    0.00    0.02    0.04    0.00    0.00    0.00    0.00    0.00   27.62 2.22925E+02 -4.472E-02    0.00    0.00     34.00     54.55    0.66    0.00    0.00    0.00    0.00    0.00    0.00    0.00    0.00    0.00    0.00    0.00    0.00    0.00    0.00    0.00
  275    0.00    0.00    0.02    0.04    0.00    0.00    0.00    0.00    0.00   26.17 2.22864E+02 -4.529E-02    0.00    0.00     14.57     35.31    0.65    0.00    0.00    0.00    0.00    0.00    0.00    0.00    0.00    0.00    0.00    0.00    0.00    0.00    0.00    0.00
  276    0.00    0.00    0.02    0.04    0.00    0.00    0.00    0.00    0.00   24.49 2.23241E+02 -4.539E-02    0.00    0.00     16.79     44.59    0.63    0.00    0.00    0.00    0.00    0.00    0.00    0.00    0.00    0.00    0.00    0.00    0.00    0.00    0.00    0.00
[...]
   1620  66   MBRW11     .486E-01   72.57   61.80    0.26    0.00  104.13    0.00    0.20  854.70  122.23   17.42  559.21    0.32    1.18    2.98    9.66    6.86  122.23
   1621  67   MBRW02     .316E+00   67.67  588.80    0.15    0.00   36.70    0.00    0.20  854.70    6.28    5.02  738.83    0.05    0.02    0.19   14.23    4.95    6.28
   1622  67   MBRW03     .297E-01   72.94  230.70    0.31    0.00   44.64    0.00    0.20  854.70   69.60    3.37  650.42    0.46    0.16    1.60    9.96    3.28   69.60
   1623  67   MBRW06     .540E-02   76.45   63.20    0.29    0.00   63.45    0.00    0.20  854.70  132.09    1.77  585.04    0.95    0.24    3.49    4.98    1.64  132.09
   1624  67   MBRW07     .162E-01   76.45   66.80    0.15    0.00   57.95    0.00    0.20  854.70  132.28    0.72  586.77    0.45    0.19    5.13    5.06    1.67  132.28
   1625  67   MBRW08     .375E+00   76.45  531.20    0.17    0.00   32.71    0.00    0.20  854.70   20.74    4.20  737.49    0.22    0.03    1.03   14.22    4.95   20.74
   1626  67   MBRW09     .537E+00   76.45  247.50    0.15    0.00   47.49    0.00    0.20  854.70   62.79    6.05  663.67    0.53    0.11    2.16   10.32    3.39   62.79
   1627  67   MBRW14     .630E-02   76.45  104.50    0.35    0.00   53.13    0.00    0.20  854.70  128.45    2.18  605.20    2.52    0.42   10.63    7.22    2.38  128.45
   1628  67   MBRW02     .335E+00   60.64  588.80    0.36    0.00    0.00    0.00    0.20  854.70    0.81    9.56  773.15    0.01    0.01    0.02    9.00    6.31    0.81
   1629  67   MBRW03     .355E+00   69.42  230.70    0.23    0.00    0.00    0.00    0.20  854.70   53.82    5.47  666.67    0.22    0.03    0.78    6.20    4.45   53.82
   1630  67   MBRW04     .963E-01   69.42  314.70    0.30    0.00    0.00    0.00    0.20  854.70   28.77    2.50  696.28    0.52    0.04    2.12    7.13    5.12   28.77
   1631  67   MBRW05     .282E+00   69.42  609.00    0.89    0.00    0.00    0.00    0.20  854.70    8.50    9.04  797.27    0.23    0.03    0.79    7.95    5.61    8.50
   1632  67   MBRW06     .131E+01   73.82   63.20    0.82    0.00    0.00    0.00    0.20  854.70  113.31   25.69  587.79    3.87    0.12    9.93    4.44    3.18  113.31
   1633  67   MBRW07     .918E-01   73.82   66.80    0.24    0.00    0.00    0.00    0.20  854.70  114.26    2.02  591.01    0.59    0.04    6.22    4.81    3.45  114.26
   1634  67   MBRW08     .104E+01   73.82  531.20    0.26    0.00    0.00    0.00    0.20  854.70   15.30   11.61  755.62    0.10    0.01    0.45    9.17    6.45   15.30
   1635  67   MBRW09     .621E+00   73.82  247.50    0.17    0.00    0.00    0.00    0.20  854.70   49.20    7.00  677.26    0.39    0.02    1.46    6.10    4.38   49.20
   1636  67   MBRW11     .135E-01   73.82   61.80    1.31    0.00    0.00    0.00    0.20  854.70   80.06  131.25  539.64    1.54    0.74   14.25    3.72    2.67   80.06
   1637  67   MBRW14     .200E+00   73.82  104.50    0.20    0.00    0.00    0.00    0.20  854.70  110.76    3.07  615.62    1.05    0.05    4.75    5.25    3.77  110.76
   1638  67   MBRW02     .135E-01   48.33  588.80    0.44    0.00    0.00    0.00    0.20  854.70    0.00    6.93  770.11    0.00    0.03    0.00   15.21    0.00    0.00
   1639  67   MBRW03     .900E-03   61.51  230.70    0.87    0.00    0.00    0.00    0.20  854.70   29.67    6.96  666.65    0.00    0.05    0.00   10.72    0.00   29.67
   1640  67   MBRW05     .540E-02   61.51  609.00    0.36    0.00    0.00    0.00    0.20  854.70    1.20    1.61  783.55    0.00    0.01    0.00   13.32    0.00    1.20
   1641  67   MBRW06     .171E-01   67.67   63.20    1.79    0.00    0.00    0.00    0.20  854.70   76.19   20.28  584.56    0.73    0.16    1.43    7.71    0.00   76.19
   1642  67   MBRW07     .900E-03   67.67   66.80    0.27    0.00    0.00    0.00    0.20  854.70   76.39    1.22  591.48    0.06    0.02    0.57    7.95    0.00   76.39
   1643  67   MBRW11     .990E-02   67.67   61.80    1.92    0.00    0.00    0.00    0.20  854.70   48.74  165.19  532.50    0.02    0.76    0.15    7.48    0.00   48.74
   1644  67   MBRW02     .972E-01   58.00  588.80    0.38    0.00    0.00    0.00    0.20  854.70    0.13    7.12  775.62    0.00    0.04    0.00   12.43    8.70    0.13
   1645  67   MBRW03     .630E-02   67.67  230.70    0.24    0.00    0.00    0.00    0.20  854.70   47.17    1.67  668.14    0.01    0.05    0.03    8.42    5.90   47.18
   1646  67   MBRW04     .333E-01   67.67  314.70    0.75    0.00    0.00    0.00    0.20  854.70   22.63    3.20  701.09    0.02    0.20    0.07    8.91    6.24   22.63
   1647  67   MBRW05     .630E-01   67.67  609.00    2.65    0.00    0.00    0.00    0.20  854.70    6.28   12.84  783.81    0.01    0.05    0.03   11.49    8.04    6.28
   1648  67   MBRW06     .239E+00   72.94   63.20    1.20    0.00    0.00    0.00    0.20  854.70  106.27   17.20  583.97    1.42    0.18    2.88    5.51    3.86  106.27
   1649  67   MBRW11     .801E-01   72.94   61.80    0.72    0.00    0.00    0.00    0.20  854.70   80.51   55.58  561.08    0.16    0.41    1.49    5.84    4.09   80.51
   1650  67   MBRW02     .657E-01   58.00  588.80    0.50    0.00    0.00    0.00    0.20  854.70    0.13    8.06  782.53    0.01    0.06    0.02   11.48   11.48    0.13
   1651  67   MBRW05     .244E+00   67.67  609.00    0.93    0.00    0.00    0.00    0.20  854.70    6.28    8.82  799.42    1.30    0.03    2.74   10.47   10.47    6.28
   1652  67   MBRW06     .531E-01   72.94   63.20    0.90    0.00    0.00    0.00    0.20  854.70  107.98    7.10  590.40    8.65    0.08   17.64    4.63    4.63  107.98
   1653  67   MBRW11     .729E-01   72.94   61.80    1.08    0.00    0.00    0.00    0.20  854.70   76.80  119.73  545.03    4.65    0.73   33.69    4.66    4.66   76.80
   1654  67   MBRW15     .414E-01   80.85    0.25    0.82    0.00    0.00    0.00    0.20  854.70    0.00    0.46 1363.49    0.00    0.00    0.00    0.00    0.00    0.00
   1655  67   MBRW02     .162E-01   56.92  588.80    0.36    0.00   61.52    0.00    0.20  854.70   52.29    5.49  746.30    0.78    0.82    1.80   16.70   11.60   52.30
   1656  67   MBRW03     .216E-01   67.09  230.70    0.38    0.00   68.51    0.00    0.20  854.70   88.40    3.62  642.11    0.46    0.77    1.24   11.03    7.82   88.40
   1657  67   MBRW04     .810E-02   67.09  314.70    0.78    0.00   52.21    0.00    0.20  854.70   69.11    4.57  673.39    2.60    0.77    7.11   11.26    7.99   69.11
   1658  67   MBRW05     .990E-02   67.09  609.00    1.76    0.00   66.75    0.00    0.20  854.70   57.35    8.66  768.70    2.99    0.88    6.95   15.40   10.70   57.35
   1659  67   MBRW06     .261E-01   72.57   63.20    0.65    0.00   86.38    0.00    0.20  854.70  146.94    5.04  574.48    1.99    1.02    5.62    9.45    6.72  146.94
   1660  67   MBRW07     .270E-02   72.57   66.80    0.18    0.00   79.85    0.00    0.20  854.70  146.66    0.72  577.79    0.59    0.75    3.57    9.28    6.60  146.66
   1661  67   MBRW08     .774E-01   72.57  531.20    0.18    0.00   57.57    0.00    0.20  854.70   64.07    0.87  730.45    0.42    0.74    1.54   16.08   11.17   64.07
   1662  67   MBRW09     .666E-01   72.57  247.50    0.13    0.00   69.95    0.00    0.20  854.70   86.61    0.77  653.07    0.35    0.72    1.19   10.73    7.61   86.61
   1663  68   MBRW02     .394E+00   67.67  588.80    0.14    0.00   36.70    0.00    0.20  854.70    6.28   32.94  738.86    0.04    0.02    0.17   14.23    4.95    6.28
   1664  68   MBRW05     .108E-01   72.94  609.00    1.67    0.00   44.23    0.00    0.20  854.70   14.18    9.87  781.01    1.16    0.13    3.17   14.16    4.93   14.18
   1665  68   MBRW06     .900E-02   76.45   63.20    0.21    0.00   63.46    0.00    0.20  854.70  132.11    1.98  585.20    0.69    0.23    2.63    4.98    1.64  132.11
   1666  68   MBRW07     .263E+00   76.45   66.80    0.16    0.00   57.95    0.00    0.20  854.70  132.27   21.67  586.78    0.65    0.19    7.57    5.06    1.67  132.27
   1667  68   MBRW08     .918E-01   76.45  531.20    0.11    0.00   32.71    0.00    0.20  854.70   20.74    7.36  737.53    0.09    0.03    0.49   14.22    4.95   20.74
   1668  68   MBRW02     .873E-01   60.64  588.80    0.40    0.00    0.00    0.00    0.20  854.70    0.81   13.27  772.98    0.01    0.01    0.02    9.00    6.31    0.81
   1669  68   MBRW03     .990E-02   69.42  230.70    0.78    0.00    0.00    0.00    0.20  854.70   52.21   12.11  662.09    0.68    0.10    2.01    6.16    4.42   52.21
   1670  68   MBRW05     .116E+00   69.42  609.00    1.79    0.00    0.00    0.00    0.20  854.70    8.50   18.70  795.03    0.44    0.04    1.29    7.93    5.60    8.50
   1671  68   MBRW06     .243E-01   73.82   63.20    1.63    0.00    0.00    0.00    0.20  854.70  111.88   61.97  575.73    5.35    0.48   12.08    4.52    3.25  111.88
   1672  68   MBRW07     .333E-01   73.82   66.80    0.38    0.00    0.00    0.00    0.20  854.70  114.21    4.94  590.72    0.99    0.06    9.34    4.81    3.45  114.21
   1673  68   MBRW08     .900E-03   73.82  531.20    0.13    0.00    0.00    0.00    0.20  854.70   15.30    0.07  755.67    0.02    0.01    0.09    9.17    6.45   15.30
   1674  68   MBRW05     .630E-02   61.51  609.00    2.40    0.00    0.00    0.00    0.20  854.70    1.20   75.30  753.81    0.00    0.18    0.00   13.04    0.00    1.20
   1675  68   MBRW06     .495E-01   67.67   63.20    2.51    0.00    0.00    0.00    0.20  854.70   76.12   28.74  583.49    1.15    0.19    2.01    7.69    0.00   76.12
   1676  68   MBRW05     .261E-01   67.67  609.00    1.73    0.00    0.00    0.00    0.20  854.70    6.28   11.36  785.60    0.00    0.04    0.02   11.50    8.05    6.28
   1677  68   MBRW06     .153E-01   72.94   63.20    2.26    0.00    0.00    0.00    0.20  854.70  104.65   74.66  569.92    1.87    0.68    3.52    5.33    3.73  104.65
   1678  68   MBRW07     .810E-02   72.94   66.80    0.17    0.00    0.00    0.00    0.20  854.70  106.14    1.34  589.71    0.10    0.06    0.96    5.75    4.03  106.14
   1679  68   MBRW05     .981E-01   67.67  609.00    2.14    0.00    0.00    0.00    0.20  854.70    6.28   18.37  796.56    2.67    0.04    4.71   10.44   10.44    6.28
   1680  68   MBRW06     .117E-01   72.94   63.20    3.35    0.00    0.00    0.00    0.20  854.70  101.03  148.89  553.23   26.67    1.27   37.44    4.16    4.16  101.03
   1681  68   MBRW07     .810E-02   72.94   66.80    0.18    0.00    0.00    0.00    0.20  854.70  108.68    1.40  592.84    1.25    0.03   11.55    4.75    4.75  108.68
   1682  68   MBRW15     .720E-02   80.85    0.25    0.93    0.00    0.00    0.00    0.20  854.70    0.00    0.58 1363.48    0.00    0.00    0.00    0.00    0.00    0.00
   1683  68   MBRW02     .900E-03   56.92  588.80    0.13    0.00   61.47    0.00    0.20  854.70   52.29    1.12  748.62    0.54    0.78    0.47   16.70   11.60   52.30
   1684  68   MBRW06     .900E-02   72.57   63.20    0.31    0.00   86.39    0.00    0.20  854.70  147.00    2.45  575.30    0.82    0.94    2.33    9.47    6.73  147.00
   1685  68   MBRW08     .540E-02   72.57  531.20    0.12    0.00   57.57    0.00    0.20  854.70   64.07    0.44  730.49    0.30    0.74    0.74   16.08   11.17   64.07
   1686  69   MBRW02     .702E-01   67.67  588.80    0.67    0.00   36.71    0.00    0.20  854.70    6.28  120.96  736.82    0.24    0.07    0.70   14.22    4.94    6.28
   1687  69   MBRW05     .720E-02   72.94  609.00    1.58    0.00   44.23    0.00    0.20  854.70   14.18   20.15  781.21    1.04    0.13    2.93   14.17    4.93   14.18
   1688  69   MBRW07     .900E-03   76.45   66.80    0.13    0.00   57.95    0.00    0.20  854.70  132.28    1.85  586.84    0.25    0.18    3.00    5.07    1.67  132.28
   1689  69   MBRW02     .324E-01   60.64  588.80    0.46    0.00    0.00    0.00    0.20  854.70    0.81   58.48  772.69    0.01    0.02    0.02    9.00    6.31    0.81
   1690  69   MBRW05     .747E-01   69.42  609.00    0.70    0.00    0.00    0.00    0.20  854.70    8.50  121.27  799.25    0.14    0.02    0.55    7.96    5.62    8.50
   1691  69   MBRW07     .495E-01   73.82   66.80    0.29    0.00    0.00    0.00    0.20  854.70  114.25   79.89  590.99    0.66    0.05    6.95    4.81    3.45  114.25
   1692  69   MBRW05     .630E-02   67.67  609.00    1.18    0.00    0.00    0.00    0.20  854.70    6.28   17.21  786.86    0.00    0.03    0.01   11.50    8.05    6.28
   1693  69   MBRW05     .810E-02   67.67  609.00    0.78    0.00    0.00    0.00    0.20  854.70    6.28   18.25  799.93    0.72    0.02    1.76   10.48   10.48    6.28



                AVE MONTHLY BASIN VALUES
                   SNOW                      WATER               SED
  MON     RAIN     FALL   SURF Q    LAT Q    YIELD       ET    YIELD      PET
          (MM)     (MM)     (MM)     (MM)     (MM)     (MM)   (T/HA)     (MM)
    1    50.80    21.07     0.08     0.30     1.99    28.64     0.00    36.72
    2    65.20    11.29     1.52     0.57     4.19    28.18     0.12    29.83
    3    77.00     0.00     2.23     1.10     7.54    79.71     0.07    80.92
    4    60.30     0.00     0.08     0.71     2.55    77.39     0.00   109.77
    5    24.30     0.00     0.04     0.65     2.36    96.46     0.00   190.95
    6    67.60     0.00     0.14     0.67     2.33    90.35     0.00   213.43
    7    33.00     0.00     0.04     0.56     2.10    48.24     0.00   207.04
    8    13.00     0.00     0.01     0.26     1.76    14.16     0.00   242.34
    9    66.60     0.00     0.11     0.36     1.81    34.85     0.00   159.36
   10   165.40     0.00    12.41     1.97    23.08    60.65     0.09    91.73
   11   128.50     0.00     9.49     1.91    18.89    47.85     0.21    54.14
   12   103.00     3.20    35.80     2.50    51.70    49.02     0.63    52.23

     AVE ANNUAL BASIN STRESS DAYS
               WATER STRESS DAYS =    48.46
               TEMPERATURE STRESS DAYS =     9.24
               NITROGEN STRESS DAYS =    37.98
               PHOSPHORUS STRESS DAYS =     0.00
               AERATION STRESS DAYS =     0.00
1
    SWAT Mar 17 2015    VER 2012/Rev 636_smrt                                       

    General Input/Output section (file.cio):                                        
    4/9/2015 12:00:00 AM ARCGIS-SWAT interface AV                                   
                                                                                    
         AVE ANNUAL BASIN VALUES

              PRECIP =    854.7 MM
              SNOW FALL =   35.55 MM
              SNOW MELT =    35.55 MM
              SUBLIMATION =     0.00 MM
              SURFACE RUNOFF Q =    61.95 MM
              LATERAL SOIL Q =   11.57 MM
              TILE Q =     0.00 MM
              DRAIN Q (MODFLOW) =     0.00MM
              GROUNDWATER (SHAL AQ) Q =    47.40 MM
              GROUNDWATER (DEEP AQ) Q =     0.00 MM
              CHANGE IN GW STORAGE (MODFLOW) =     5.61 MM
              CONSTANT HEAD Q (MODFLOW) =     0.00 MM
              RIVER SEEPAGE Q =     0.63 MM
              REVAP (SHAL AQ => SOIL/PLANTS) =    0.05 MM
              DEEP AQ RECHARGE =     0.00 MM
              TOTAL AQ RECHARGE =   49.85 MM
              TOTAL WATER YLD =   120.30 MM
              PERCOLATION OUT OF SOIL =   49.85 MM
              ET =    655.5 MM
              ET FROM GROUNDWATER (MODFLOW) =     0.00 MM
              PET =   1468.4MM
              TRANSMISSION LOSSES =     0.00 MM
              SEPTIC INFLOW =       0.00 MM
              TOTAL SEDIMENT LOADING =     1.118 T/HA
              TILE FROM IMPOUNDED WATER =     0.000 (MM)
              EVAPORATION FROM IMPOUNDED WATER =     0.000 (MM)
              SEEPAGE INTO SOIL FROM IMPOUNDED WATER =    0.000 (MM)
              OVERFLOW FROM IMPOUNDED WATER =    0.000 (MM)
1
    SWAT Mar 17 2015    VER 2012/Rev 636_smrt                                       

    General Input/Output section (file.cio):                                        
    4/9/2015 12:00:00 AM ARCGIS-SWAT interface AV                                   
                                                                                    
              AVE ANNUAL BASIN VALUES


              NUTRIENTS
                   ORGANIC N =     4.832 (KG/HA)
                   ORGANIC P =     0.603 (KG/HA)
                   NO3 YIELD (SQ) =     0.059 (KG/HA)
                   NO3 YIELD (LAT) =    0.091 (KG/HA)
                   NO3 YIELD (TILE) =    0.000 (KG/HA)
                   SOLP YIELD (TILE) =    0.000(KG/HA)
                   SOLP YIELD (SURF INLET RISER) =    0.000 (KG/HA)
                   SOL P YIELD (SQ) =    0.017 (KG/HA)
                   NO3 LEACHED =     5.513 (KG/HA)
                   P LEACHED =     0.018 (KG/HA)
                   N UPTAKE =    60.458 (KG/HA)
                   P UPTAKE =   14.169 (KG/HA)
                   NO3 LOAD GW (RT3D) =     0.000 (KG/HA)
                   NO3 SW-GW (RT3D) =     0.000 (KG/HA)
                   NO3 LOAD DRAIN (RT3D) =     0.000 (KG/HA)
                   P LOAD GW (RT3D) =     0.000 (KG/HA)
                   P SW-GW (RT3D) =     0.000 (KG/HA)
                   P LOAD DRAIN (RT3D) =     0.000 (KG/HA)

                   ACTIVE TO SOLUTION P FLOW =         2.836 (KG/HA)
                   ACTIVE TO STABLE P FLOW =        37.707 (KG/HA)
                   N FERTILIZER APPLIED =    10.737 (KG/HA)
                   P FERTILIZER APPLIED =     0.000 (KG/HA)
                   N FIXATION =     0.000 (KG/HA)
                   DENITRIFICATION =     0.000 (KG/HA)
                   HUMUS MIN ON ACTIVE ORG N =     7.400 (KG/HA)
                   ACTIVE TO STABLE ORG N =    -0.563 (KG/HA)
                   HUMUS MIN ON ACTIVE ORG P =    1.269 (KG/HA)
                   MIN FROM FRESH ORG N =    9.430 (KG/HA)
                   MIN FROM FRESH ORG P =    2.311 (KG/HA)
                   NO3 IN RAINFALL =     0.000 (KG/HA)
                   INITIAL NO3 IN SOIL =      50.891 (KG/HA)
                   FINAL NO3 IN SOIL =        10.273 (KG/HA)
                   INITIAL ORG N IN SOIL =    9808.160 (KG/HA)
                   FINAL ORG N IN SOIL =      9803.593 (KG/HA)
                   INITIAL MIN P IN SOIL =    2689.961 (KG/HA)
                   FINAL MIN P IN SOIL =      2678.049 (KG/HA)
                   INITIAL ORG P IN SOIL =    1201.499 (KG/HA)
                   FINAL ORG P IN SOIL =    1201.656 (KG/HA)
                   NO3 IN FERT =    10.737 (KG/HA)
                   AMMONIA IN FERT =     0.000 (KG/HA)
                   ORG N IN FERT =     0.000 (KG/HA)
                   MINERAL P IN FERT =     0.000 (KG/HA)
                   ORG P IN FERT =     0.000 (KG/HA)
                   N REMOVED IN YIELD =    45.215 (KG/HA)
                   P REMOVED IN YIELD =    10.284 (KG/HA)
                   AMMONIA VOLATILIZATION =     0.000 (KG/HA)
                   AMMONIA NITRIFICATION =      0.000 (KG/HA)
                   NO3 EVAP-LAYER 2 TO 1 =    5.193

                   DIE-GRO P Q =       0.0 (No/HA)
                   DIE-GRO LP Q =       0.0 (No/HA)
                   DIE-GRO P SED =      0.0 (No/HA)
                   DIE-GRO LP SED =      0.0 (No/HA)
                   BACT P RUNOFF =      0.0 (No/HA)
                   BACT LP RUNOFF =      0.0 (No/HA)
                   BACT P SEDIMENT =      0.0 (No/HA)
                   BACT LP SEDIMENT =      0.0 (No/HA)
                   BACT P INCORP =      0.0 (No/HA)
                   BACT LP INCORP =      0.0 (No/HA)

                   NITRATE SEPTIC =         0.00 (kg/ha)
                   AMMONIA SEPTIC =         0.00 (kg/ha)
                   ORG N SEPTIC =         0.00 (kg/ha)
                   FRESH ORGN SEPTIC =         0.00 (kg/ha)
                   ORG P SEPTIC =         0.00 (kg/ha)
                   FRESH ORGP SEPTIC =         0.00 (kg/ha)
                   SOL P SEPTIC =         0.00 (kg/ha)
                   BOD SEPTIC =         0.00 (kg/ha)
