1
    SWAT Dec 23 2016    VER 2016/Rev 664                                                                 0/ 0/   0      0: 0: 0

    General Input/Output section (file.cio):                                        
    4/9/2015 12:00:00 AM ARCGIS-SWAT interface AV                                   
                                                                                    
         Number of years in run:    1
         Area of watershed:      469.120 km2
1
    SWAT Dec 23 2016    VER 2016/Rev 664                                            

    General Input/Output section (file.cio):                                        
    4/9/2015 12:00:00 AM ARCGIS-SWAT interface AV                                   
                                                                                    
Annual Summary for Watershed in year    1 of simulation

UNIT                                    PERCO    TILE                           WATER     SED     NO3     NO3     NO3     NO3        N       P       P
TIME     PREC    SURQ    LATQ     GWQ    LATE       Q     SW       ET     PET   YIELD   YIELD    SURQ    LATQ    PERC    CROP  ORGANIC SOLUBLE ORGANIC TILENO3
         (mm)    (mm)    (mm)    (mm)    (mm)    (mm)    (mm)    (mm)    (mm)    (mm)   (t/ha)  ------------------(kg nutrient/ha)-------------------- (kg/ha)
    1    1.10    0.00    0.00    0.00    0.00    0.00   87.47    0.11    0.22    0.00    0.00    0.00    0.00    0.00    0.00     0.00    0.00    0.00    0.00
    2   16.90    0.00    0.00    0.00    0.00    0.00   87.33    0.14    0.58    0.00    0.00    0.00    0.00    0.00    0.00     0.00    0.00    0.00    0.00
    3    0.00    0.01    0.00    0.00    0.00    0.00   93.64    0.33    0.88    0.01    0.00    0.00    0.00    0.00    0.00     0.00    0.00    0.00    0.00
    4    0.10    0.02    0.01    0.00    0.00    0.00  103.47    0.22    0.26    0.03    0.00    0.00    0.00    0.00    0.00     0.00    0.00    0.00    0.00
    5    0.40    0.00    0.01    0.00    0.00    0.00  103.66    0.20    0.23    0.01    0.00    0.00    0.00    0.00    0.00     0.00    0.00    0.00    0.00
    6    0.00    0.00    0.01    0.00    0.00    0.00  102.28    1.39    1.68    0.01    0.00    0.00    0.00    0.00    0.00     0.00    0.00    0.00    0.00
    7    0.00    0.00    0.01    0.00    0.00    0.00  101.00    1.28    2.15    0.01    0.00    0.00    0.00    0.00    0.00     0.00    0.00    0.00    0.00
    8    0.00    0.00    0.01    0.00    0.00    0.00  100.22    0.78    1.57    0.01    0.00    0.00    0.00    0.00    0.00     0.00    0.00    0.00    0.00
    9    1.90    0.00    0.01    0.00    0.00    0.00  101.83    0.28    0.33    0.01    0.00    0.00    0.00    0.00    0.00     0.00    0.00    0.00    0.00
   10    0.00    0.00    0.01    0.00    0.00    0.00   99.75    2.09    2.68    0.01    0.00    0.00    0.00    0.00    0.00     0.00    0.00    0.00    0.00
   11    0.00    0.00    0.01    0.00    0.00    0.00   99.20    0.55    1.17    0.01    0.00    0.00    0.00    0.00    0.00     0.00    0.00    0.00    0.00
   12    1.20    0.00    0.01    0.00    0.00    0.00   99.20    0.00    0.00    0.01    0.00    0.00    0.00    0.00    0.00     0.00    0.00    0.00    0.00
   13    0.20    0.00    0.01    0.00    0.00    0.00   99.20    0.00    0.00    0.01    0.00    0.00    0.00    0.00    0.00     0.00    0.00    0.00    0.00
   14    0.00    0.00    0.01    0.00    0.00    0.00   99.05    1.55    1.94    0.01    0.00    0.00    0.00    0.00    0.00     0.00    0.00    0.00    0.00
   15    0.00    0.00    0.01    0.00    0.00    0.00   98.18    0.87    1.75    0.01    0.00    0.00    0.00    0.00    0.00     0.00    0.00    0.00    0.00
   16   10.80    0.02    0.01    0.00    0.00    0.00  107.92    0.86    0.96    0.03    0.00    0.00    0.00    0.00    0.00     0.00    0.00    0.00    0.00
   17    0.00    0.00    0.01    0.00    0.00    0.00  107.00    0.92    1.22    0.02    0.00    0.00    0.00    0.00    0.00     0.00    0.00    0.00    0.00
   18    0.00    0.00    0.01    0.00    0.00    0.00  105.76    1.25    1.94    0.01    0.00    0.00    0.00    0.00    0.00     0.00    0.00    0.00    0.00
   19    0.00    0.00    0.01    0.00    0.00    0.00  105.07    0.69    1.26    0.01    0.00    0.00    0.00    0.00    0.00     0.00    0.00    0.00    0.00
   20    0.20    0.00    0.01    0.00    0.00    0.00  104.96    0.11    0.22    0.01    0.00    0.00    0.00    0.00    0.00     0.00    0.00    0.00    0.00
   21    0.00    0.00    0.01    0.00    0.00    0.00  104.17    0.99    1.86    0.01    0.00    0.00    0.00    0.00    0.00     0.00    0.00    0.00    0.00
   22    0.00    0.00    0.01    0.00    0.00    0.00  103.01    1.16    2.41    0.01    0.00    0.00    0.00    0.00    0.00     0.00    0.00    0.00    0.00
   23    0.00    0.00    0.01    0.00    0.00    0.00  102.55    0.46    1.05    0.01    0.00    0.00    0.00    0.00    0.00     0.00    0.00    0.00    0.00
   24    0.00    0.00    0.01    0.00    0.00    0.00  101.73    0.83    1.95    0.01    0.00    0.00    0.00    0.00    0.00     0.00    0.00    0.00    0.00
   25    0.00    0.00    0.01    0.00    0.00    0.00  100.03    1.70    4.28    0.01    0.00    0.00    0.00    0.00    0.00     0.00    0.00    0.00    0.00
   26    0.00    0.00    0.01    0.00    0.00    0.00   99.25    0.79    2.21    0.01    0.00    0.00    0.00    0.00    0.00     0.00    0.00    0.00    0.00
   27   14.40    0.03    0.02    0.00    0.00    0.00  113.24    0.13    0.14    0.05    0.00    0.00    0.00    0.00    0.00     0.00    0.00    0.00    0.00
   28    0.10    0.00    0.02    0.00    0.00    0.00  113.20    0.14    0.15    0.02    0.00    0.00    0.00    0.00    0.00     0.00    0.00    0.00    0.00
   29    0.30    0.00    0.02    0.00    0.00    0.00  113.09    0.41    0.44    0.02    0.00    0.00    0.00    0.00    0.00     0.00    0.00    0.00    0.00
   30    0.60    0.00    0.02    0.00    0.00    0.00  112.79    0.89    0.96    0.02    0.00    0.00    0.00    0.00    0.00     0.00    0.00    0.00    0.00
   31    2.60    0.00    0.02    0.00    0.00    0.00  115.12    0.21    0.23    0.02    0.00    0.00    0.00    0.00    0.00     0.00    0.00    0.00    0.00
    1   50.80    0.08    0.32    0.00    0.00    0.00  115.12   21.34   36.72    0.40    0.00    0.00    0.01    0.00    0.00     0.01    0.00    0.00    0.00
   32    1.10    0.00    0.02    0.00    0.00    0.00  115.12    0.00    0.00    0.02    0.00    0.00    0.00    0.00    0.00     0.00    0.00    0.00    0.00
   33    0.10    0.00    0.02    0.00    0.00    0.00  115.05    0.07    0.15    0.02    0.00    0.00    0.00    0.00    0.00     0.00    0.00    0.00    0.00
   34    0.20    0.00    0.01    0.00    0.00    0.00  114.97    0.09    0.19    0.01    0.00    0.00    0.00    0.00    0.00     0.00    0.00    0.00    0.00
   35    8.00    0.00    0.01    0.00    0.00    0.00  114.97    0.00    0.00    0.01    0.00    0.00    0.00    0.00    0.00     0.00    0.00    0.00    0.00
   36    0.60    0.00    0.01    0.00    0.00    0.00  114.97    0.00    0.00    0.01    0.00    0.00    0.00    0.00    0.00     0.00    0.00    0.00    0.00
   37    0.80    0.00    0.01    0.00    0.00    0.00  114.97    0.00    0.00    0.01    0.00    0.00    0.00    0.00    0.00     0.00    0.00    0.00    0.00
   38    0.30    0.00    0.01    0.00    0.00    0.00  114.83    0.13    0.29    0.01    0.00    0.00    0.00    0.00    0.00     0.00    0.00    0.00    0.00
   39    0.20    1.61    0.01    0.00    0.00    0.00  124.05    0.45    0.48    1.41    0.13    0.00    0.00    0.00    0.00     0.43    0.00    0.05    0.00
   40    1.50    0.00    0.01    0.00    0.00    0.00  125.03    0.49    0.51    0.19    0.00    0.00    0.00    0.00    0.00     0.03    0.00    0.00    0.00
   41   12.00    0.06    0.03    0.01    0.28    0.00  136.00    0.37    0.38    0.12    0.00    0.00    0.00    0.12    0.00     0.01    0.00    0.00    0.00
   42    0.10    0.00    0.03    0.01    0.00    0.00  135.29    0.81    0.84    0.05    0.00    0.00    0.00    0.00    0.00     0.00    0.00    0.00    0.00
   43    0.00    0.00    0.02    0.01    0.00    0.00  133.66    1.63    1.76    0.04    0.00    0.00    0.00    0.00    0.00     0.00    0.00    0.00    0.00
   44    0.00    0.00    0.02    0.01    0.00    0.00  131.63    2.03    2.47    0.03    0.00    0.00    0.00    0.00    0.00     0.00    0.00    0.00    0.00
   45    0.00    0.00    0.02    0.01    0.00    0.00  129.82    1.81    2.46    0.03    0.00    0.00    0.00    0.00    0.00     0.00    0.00    0.00    0.00
   46    0.00    0.00    0.02    0.01    0.00    0.00  128.28    1.54    2.31    0.03    0.00    0.00    0.00    0.00    0.00     0.00    0.00    0.00    0.00
   47    0.00    0.00    0.02    0.01    0.00    0.00  126.87    1.41    2.28    0.03    0.00    0.00    0.00    0.00    0.00     0.00    0.00    0.00    0.00
   48    0.40    0.00    0.02    0.01    0.00    0.00  127.14    0.14    0.22    0.03    0.00    0.00    0.00    0.00    0.00     0.00    0.00    0.00    0.00
   49    1.70    0.00    0.02    0.01    0.00    0.00  128.41    0.42    0.45    0.02    0.00    0.00    0.00    0.00    0.00     0.00    0.00    0.00    0.00
   50    0.60    0.00    0.02    0.01    0.00    0.00  128.69    0.31    0.33    0.02    0.00    0.00    0.00    0.00    0.00     0.00    0.00    0.00    0.00
   51    5.00    0.01    0.02    0.01    0.00    0.00  133.35    0.27    0.28    0.03    0.00    0.00    0.00    0.00    0.00     0.00    0.00    0.00    0.00
   52    3.00    0.00    0.02    0.01    0.00    0.00  134.17    2.11    2.17    0.03    0.00    0.00    0.00    0.00    0.00     0.00    0.00    0.00    0.00
   53    1.60    0.00    0.02    0.01    0.00    0.00  134.77    0.99    1.02    0.03    0.00    0.00    0.00    0.00    0.00     0.00    0.00    0.00    0.00
   54   17.10    0.53    0.04    0.06    2.42    0.00  148.00    0.47    0.48    0.57    0.04    0.00    0.00    1.18    0.00     0.14    0.00    0.02    0.00
   55    0.10    0.00    0.04    0.08    0.02    0.00  146.80    1.29    1.31    0.17    0.00    0.00    0.00    0.01    0.00     0.01    0.00    0.00    0.00
   56    0.10    0.00    0.04    0.08    0.00    0.00  146.03    0.87    0.92    0.13    0.00    0.00    0.00    0.00    0.00     0.00    0.00    0.00    0.00
   57    0.00    0.00    0.03    0.08    0.00    0.00  141.76    4.27    4.74    0.12    0.00    0.00    0.00    0.00    0.00     0.00    0.00    0.00    0.00
   58    0.00    0.00    0.03    0.08    0.00    0.00  139.48    2.28    3.08    0.11    0.00    0.00    0.00    0.00    0.00     0.00    0.00    0.00    0.00
   59   10.70    0.05    0.04    0.08    0.04    0.00  149.22    0.70    0.70    0.16    0.00    0.00    0.00    0.02    0.00     0.01    0.00    0.00    0.00
    2   65.20    2.26    0.61    0.57    2.77    0.00  149.22   24.96   29.83    3.44    0.17    0.00    0.02    1.32    0.00     0.64    0.00    0.08    0.00
   60    0.90    0.00    0.04    0.08    0.04    0.00  148.06    2.01    2.03    0.12    0.00    0.00    0.00    0.01    0.00     0.00    0.00    0.00    0.00
   61    0.00    0.00    0.03    0.08    0.00    0.00  143.61    4.46    4.93    0.11    0.00    0.00    0.00    0.00    0.00     0.00    0.00    0.00    0.00
   62    2.70    0.00    0.03    0.07    0.00    0.00  143.98    2.31    2.33    0.11    0.00    0.00    0.00    0.00    0.00     0.00    0.00    0.00    0.00
   63    6.20    0.01    0.03    0.07    0.00    0.00  149.18    0.91    0.91    0.11    0.00    0.00    0.00    0.00    0.00     0.00    0.00    0.00    0.00
   64    0.00    0.00    0.03    0.07    0.00    0.00  144.64    4.54    4.68    0.10    0.00    0.00    0.00    0.00    0.00     0.00    0.00    0.00    0.00
   65    0.10    0.00    0.03    0.06    0.00    0.00  142.69    2.06    2.65    0.10    0.00    0.00    0.00    0.00    0.00     0.00    0.00    0.00    0.00
   66    1.80    0.00    0.03    0.06    0.00    0.00  143.50    0.98    1.02    0.09    0.00    0.00    0.00    0.00    0.00     0.00    0.00    0.00    0.00
   67    1.00    0.00    0.03    0.06    0.00    0.00  143.42    1.08    1.09    0.09    0.00    0.00    0.00    0.00    0.00     0.00    0.00    0.00    0.00
   68    0.30    0.00    0.03    0.06    0.00    0.00  142.74    0.98    1.03    0.09    0.00    0.00    0.00    0.00    0.00     0.00    0.00    0.00    0.00
   69    0.20    0.00    0.03    0.06    0.00    0.00  141.76    1.19    1.31    0.08    0.00    0.00    0.00    0.00    0.00     0.00    0.00    0.00    0.00
   70    0.30    0.00    0.02    0.05    0.00    0.00  140.82    1.24    1.42    0.08    0.00    0.00    0.00    0.00    0.00     0.00    0.00    0.00    0.00
   71    2.20    0.00    0.02    0.05    0.00    0.00  141.27    1.73    1.75    0.08    0.00    0.00    0.00    0.00    0.00     0.00    0.00    0.00    0.00
   72    6.50    0.01    0.03    0.05    0.00    0.00  146.42    1.25    1.26    0.09    0.00    0.00    0.00    0.00    0.00     0.00    0.00    0.00    0.00
   73   27.40    2.42    0.06    0.16    5.04    0.00  164.57    1.11    1.12    2.33    0.07    0.00    0.00    2.07    0.00     0.30    0.00    0.04    0.00
   74    0.40    0.00    0.06    0.20    0.08    0.00  163.19    1.70    1.71    0.51    0.00    0.00    0.00    0.02    0.00     0.02    0.00    0.00    0.00
   75    4.60    0.00    0.06    0.22    0.76    0.00  165.81    1.13    1.14    0.33    0.00    0.00    0.00    0.22    0.00     0.00    0.00    0.00    0.00
   76    0.00    0.00    0.05    0.23    0.02    0.00  159.41    6.38    6.55    0.29    0.00    0.00    0.00    0.00    0.00     0.00    0.00    0.00    0.00
   77    0.00    0.00    0.05    0.22    0.00    0.00  153.95    5.47    7.02    0.28    0.00    0.00    0.00    0.00    0.00     0.00    0.00    0.00    0.00
   78    2.00    0.00    0.05    0.22    0.00    0.00  154.84    1.10    1.20    0.27    0.00    0.00    0.00    0.00    0.00     0.00    0.00    0.00    0.00
   79   10.90    0.05    0.05    0.21    0.00    0.00  164.22    1.27    1.28    0.31    0.00    0.00    0.00    0.00    0.00     0.01    0.00    0.00    0.00
   80    0.60    0.00    0.05    0.20    0.00    0.00  164.56    0.26    0.26    0.26    0.00    0.00    0.00    0.00    0.00     0.00    0.00    0.00    0.00
   81    0.00    0.00    0.05    0.19    0.00    0.00  160.97    3.60    3.61    0.24    0.00    0.00    0.00    0.00    0.00     0.00    0.00    0.00    0.00
   82    0.00    0.00    0.04    0.19    0.00    0.00  156.76    4.22    5.09    0.23    0.00    0.00    0.00    0.00    0.00     0.00    0.00    0.00    0.00
   83    0.00    0.00    0.04    0.18    0.00    0.00  153.08    3.69    5.23    0.22    0.00    0.00    0.00    0.00    0.00     0.00    0.00    0.00    0.00
   84    0.00    0.00    0.04    0.17    0.00    0.00  149.92    3.16    5.20    0.21    0.00    0.00    0.00    0.00    0.00     0.00    0.00    0.00    0.00
   85    3.50    0.00    0.04    0.17    0.00    0.00  152.56    0.83    0.84    0.21    0.00    0.00    0.00    0.00    0.00     0.00    0.00    0.00    0.00
   86    1.60    0.00    0.04    0.16    0.00    0.00  153.10    1.05    1.06    0.20    0.00    0.00    0.00    0.00    0.00     0.00    0.00    0.00    0.00
   87    0.00    0.00    0.04    0.16    0.00    0.00  147.84    5.26    6.52    0.19    0.00    0.00    0.00    0.00    0.00     0.00    0.00    0.00    0.00
   88    1.10    0.00    0.03    0.15    0.00    0.00  147.99    0.96    1.34    0.18    0.00    0.00    0.00    0.00    0.00     0.00    0.00    0.00    0.00
   89    2.70    0.00    0.03    0.14    0.00    0.00  149.72    0.95    0.96    0.18    0.00    0.00    0.00    0.00    0.00     0.00    0.00    0.00    0.00
   90    0.00    0.00    0.03    0.14    0.00    0.00  146.13    3.59    4.37    0.17    0.00    0.00    0.00    0.00    0.00     0.00    0.00    0.00    0.00
    3   77.00    2.50    1.18    4.13    5.94    0.00  146.13   70.47   80.92    7.86    0.07    0.00    0.02    2.32    0.00     0.34    0.00    0.04    0.00
   91    0.00    0.00    0.03    0.13    0.00    0.00  143.70    2.44    4.29    0.17    0.00    0.00    0.00    0.00    0.00     0.00    0.00    0.00    0.00
   92    0.00    0.00    0.03    0.13    0.00    0.00  141.17    2.54    5.00    0.16    0.00    0.00    0.00    0.00    0.00     0.00    0.00    0.00    0.00
   93    0.00    0.00    0.03    0.12    0.00    0.00  138.25    2.92    6.53    0.15    0.00    0.00    0.00    0.00    0.00     0.00    0.00    0.00    0.00
   94    0.00    0.00    0.03    0.12    0.00    0.00  134.88    3.37    8.34    0.15    0.00    0.00    0.00    0.00    0.00     0.00    0.00    0.00    0.00
   95    0.00    0.00    0.03    0.11    0.00    0.00  132.64    2.25    6.08    0.14    0.00    0.00    0.00    0.00    0.00     0.00    0.00    0.00    0.00
   96    0.00    0.00    0.02    0.11    0.00    0.00  130.67    1.98    5.65    0.14    0.00    0.00    0.00    0.00    0.00     0.00    0.00    0.00    0.00
   97    0.60    0.00    0.02    0.11    0.00    0.00  130.90    0.37    0.90    0.13    0.00    0.00    0.00    0.00    0.00     0.00    0.00    0.00    0.00
   98    2.10    0.00    0.02    0.10    0.00    0.00  132.32    0.67    0.83    0.13    0.00    0.00    0.00    0.00    0.00     0.00    0.00    0.00    0.00
   99    0.00    0.00    0.02    0.10    0.00    0.00  130.16    2.17    3.39    0.12    0.00    0.00    0.00    0.00    0.00     0.00    0.00    0.00    0.00
  100    0.20    0.00    0.02    0.09    0.00    0.00  129.91    0.45    0.97    0.12    0.00    0.00    0.00    0.00    0.00     0.00    0.00    0.00    0.00
  101    1.70    0.00    0.02    0.09    0.00    0.00  130.69    0.91    1.11    0.12    0.00    0.00    0.00    0.00    0.13     0.00    0.00    0.00    0.00
  102    0.70    0.00    0.02    0.09    0.00    0.00  129.50    1.90    2.30    0.11    0.00    0.00    0.00    0.00    0.26     0.00    0.00    0.00    0.00
  103    7.30    0.01    0.02    0.08    0.00    0.00  134.37    2.33    2.61    0.12    0.00    0.00    0.00    0.00    0.55     0.00    0.00    0.00    0.00
  104    0.00    0.00    0.02    0.08    0.00    0.00  131.81    2.56    4.89    0.11    0.00    0.00    0.00    0.00    0.67     0.00    0.00    0.00    0.00
  105    0.00    0.00    0.02    0.08    0.00    0.00  129.06    2.76    6.23    0.10    0.00    0.00    0.00    0.00    0.90     0.00    0.00    0.00    0.00
  106    0.00    0.00    0.02    0.08    0.00    0.00  126.39    2.68    6.94    0.10    0.00    0.00    0.00    0.00    1.09     0.00    0.00    0.00    0.00
  107    0.00    0.00    0.02    0.07    0.00    0.00  124.14    2.26    6.42    0.10    0.00    0.00    0.00    0.00    1.26     0.00    0.00    0.00    0.00
  108    0.00    0.00    0.02    0.07    0.00    0.00  121.89    2.25    6.58    0.09    0.00    0.00    0.00    0.00    1.30     0.00    0.00    0.00    0.00
  109    0.50    0.00    0.02    0.07    0.00    0.00  121.78    0.62    1.58    0.09    0.00    0.00    0.00    0.00    0.57     0.00    0.00    0.00    0.00
  110   11.70    0.02    0.03    0.06    0.00    0.00  130.75    2.55    2.80    0.11    0.00    0.00    0.00    0.00    0.84     0.00    0.00    0.00    0.00
  111    0.90    0.00    0.02    0.06    0.00    0.00  129.98    1.68    2.24    0.09    0.00    0.00    0.00    0.00    0.98     0.00    0.00    0.00    0.00
  112   11.00    0.02    0.03    0.06    0.00    0.00  137.53    3.25    3.32    0.11    0.00    0.00    0.00    0.00    1.77     0.00    0.00    0.00    0.00
  113    1.30    0.00    0.03    0.06    0.00    0.00  137.76    1.07    1.16    0.09    0.00    0.00    0.00    0.00    1.19     0.00    0.00    0.00    0.00
  114    0.00    0.00    0.03    0.06    0.00    0.00  132.49    5.27    7.11    0.09    0.00    0.00    0.00    0.00    2.19     0.00    0.00    0.00    0.00
  115    1.20    0.00    0.03    0.05    0.00    0.00  131.93    1.77    2.63    0.08    0.00    0.00    0.00    0.00    1.34     0.00    0.00    0.00    0.00
  116    2.70    0.00    0.03    0.05    0.00    0.00  133.96    0.65    0.69    0.08    0.00    0.00    0.00    0.00    0.74     0.00    0.00    0.00    0.00
  117    0.90    0.00    0.02    0.05    0.00    0.00  133.81    1.04    1.11    0.08    0.00    0.00    0.00    0.00    1.17     0.00    0.00    0.00    0.00
  118   10.10    0.02    0.03    0.05    0.00    0.00  140.49    3.22    3.26    0.10    0.00    0.00    0.00    0.00    1.79     0.00    0.00    0.00    0.00
  119    6.90    0.01    0.04    0.05    0.00    0.00  145.15    2.11    2.12    0.10    0.00    0.00    0.00    0.00    1.71     0.00    0.00    0.00    0.00
  120    0.50    0.00    0.03    0.04    0.00    0.00  143.10    2.55    2.68    0.08    0.00    0.00    0.00    0.00    0.40     0.00    0.00    0.00    0.00
    4   60.30    0.08    0.76    2.43    0.00    0.00  143.10   62.58  109.77    3.35    0.00    0.01    0.01    0.00   20.86     0.00    0.00    0.00    0.00
  121    0.00    0.00    0.03    0.04    0.00    0.00  136.56    6.55    8.83    0.08    0.00    0.00    0.00    0.00    3.23     0.00    0.00    0.00    0.00
  122    0.00    0.00    0.03    0.04    0.00    0.00  133.27    3.30    5.29    0.07    0.00    0.00    0.00    0.00    3.78     0.00    0.00    0.00    0.00
  123    0.00    0.00    0.03    0.04    0.00    0.00  130.74    2.53    4.88    0.07    0.00    0.00    0.00    0.00    3.89     0.00    0.00    0.00    0.00
  124    0.00    0.00    0.03    0.04    0.00    0.00  127.68    3.08    5.49    0.07    0.00    0.00    0.00    0.00    3.76     0.00    0.00    0.00    0.00
  125    0.00    0.00    0.03    0.04    0.00    0.00  124.64    3.05    5.95    0.06    0.00    0.00    0.00    0.00    2.55     0.00    0.00    0.00    0.00
  126    0.00    0.00    0.02    0.04    0.00    0.00  120.98    3.67    6.92    0.06    0.00    0.00    0.00    0.00    1.17     0.00    0.00    0.00    0.00
  127    0.00    0.00    0.02    0.03    0.00    0.00  116.68    4.31    9.87    0.06    0.00    0.00    0.00    0.00    0.43     0.00    0.00    0.00    0.00
  128    8.20    0.01    0.03    0.03    0.00    0.00  122.22    2.56    2.97    0.07    0.00    0.01    0.00    0.00    0.44     0.00    0.00    0.00    0.00
  129    0.30    0.00    0.03    0.03    0.00    0.00  120.83    1.69    2.73    0.06    0.00    0.00    0.00    0.00    0.70     0.00    0.00    0.00    0.00
  130    0.00    0.00    0.02    0.03    0.00    0.00  115.80    5.04    8.57    0.06    0.00    0.00    0.00    0.00    0.76     0.00    0.00    0.00    0.00
  131    0.10    0.00    0.02    0.03    0.00    0.00  114.45    1.46    2.53    0.05    0.00    0.00    0.00    0.00    0.65     0.00    0.00    0.00    0.00
  132    0.00    0.00    0.02    0.03    0.00    0.00  110.27    4.18    8.52    0.05    0.00    0.00    0.00    0.00    0.48     0.00    0.00    0.00    0.00
  133    8.00    0.01    0.03    0.03    0.00    0.00  116.46    1.71    2.02    0.07    0.00    0.00    0.00    0.00    0.55     0.00    0.00    0.00    0.00
  134    6.70    0.01    0.03    0.03    0.00    0.00  121.48    1.58    1.75    0.07    0.00    0.00    0.00    0.00    0.46     0.00    0.00    0.00    0.00
  135    0.00    0.00    0.03    0.02    0.00    0.00  118.04    3.45    4.91    0.06    0.00    0.00    0.00    0.00    0.34     0.00    0.00    0.00    0.00
  136    0.00    0.00    0.03    0.02    0.00    0.00  113.82    4.23    6.96    0.05    0.00    0.00    0.00    0.00    0.84     0.00    0.00    0.00    0.00
  137    0.00    0.00    0.02    0.02    0.00    0.00  109.86    3.97    8.07    0.05    0.00    0.00    0.00    0.00    0.96     0.00    0.00    0.00    0.00
  138    0.00    0.00    0.02    0.02    0.00    0.00  106.35    3.51    6.52    0.05    0.00    0.00    0.00    0.00    0.96     0.00    0.00    0.00    0.00
  139    0.00    0.00    0.02    0.02    0.00    0.00  102.81    3.55    8.68    0.05    0.00    0.00    0.00    0.00    0.94     0.00    0.00    0.00    0.00
  140    0.00    0.00    0.02    0.02    0.00    0.00  100.14    2.68    4.84    0.04    0.00    0.00    0.00    0.00    0.92     0.00    0.00    0.00    0.00
  141    0.60    0.00    0.02    0.02    0.00    0.00   99.62    1.12    2.22    0.04    0.00    0.00    0.00    0.00    0.89     0.00    0.00    0.00    0.00
  142    0.30    0.00    0.02    0.02    0.00    0.00   98.41    1.51    2.93    0.04    0.00    0.00    0.00    0.00    0.54     0.00    0.00    0.00    0.00
  143    0.10    0.00    0.02    0.02    0.00    0.00   96.95    1.57    3.07    0.04    0.00    0.00    0.00    0.00    0.75     0.00    0.00    0.00    0.00
  144    0.00    0.00    0.02    0.02    0.00    0.00   94.41    2.55    5.49    0.04    0.00    0.00    0.00    0.00    0.66     0.00    0.00    0.00    0.00
  145    0.00    0.00    0.02    0.02    0.00    0.00   90.65    3.76    9.02    0.04    0.00    0.00    0.00    0.00    0.74     0.00    0.00    0.00    0.00
  146    0.00    0.00    0.02    0.02    0.00    0.00   87.73    2.93    8.01    0.04    0.00    0.00    0.00    0.00    0.52     0.00    0.00    0.00    0.00
  147    0.00    0.00    0.02    0.02    0.00    0.00   85.00    2.74    6.17    0.03    0.00    0.00    0.00    0.00    0.61     0.00    0.00    0.00    0.00
  148    0.00    0.00    0.02    0.02    0.00    0.00   81.16    3.85   10.00    0.03    0.00    0.00    0.00    0.00    0.61     0.00    0.00    0.00    0.00
  149    0.00    0.00    0.01    0.01    0.00    0.00   77.58    3.59   10.30    0.03    0.00    0.00    0.00    0.00    0.53     0.00    0.00    0.00    0.00
  150    0.00    0.00    0.01    0.01    0.00    0.00   74.14    3.45    8.12    0.03    0.00    0.00    0.00    0.00    0.32     0.00    0.00    0.00    0.00
  151    0.00    0.00    0.01    0.01    0.00    0.00   70.88    3.27    9.29    0.03    0.00    0.00    0.00    0.00    0.30     0.00    0.00    0.00    0.00
    5   24.30    0.04    0.69    0.79    0.00    0.00   70.88   96.43  190.95    1.59    0.00    0.01    0.00    0.00   34.27     0.00    0.00    0.00    0.00
  152    0.00    0.00    0.01    0.01    0.00    0.00   67.18    3.70    9.62    0.03    0.00    0.00    0.00    0.00    0.34     0.00    0.00    0.00    0.00
  153    0.00    0.00    0.01    0.01    0.00    0.00   64.50    2.69    7.77    0.03    0.00    0.00    0.00    0.00    0.25     0.00    0.00    0.00    0.00
  154    0.00    0.00    0.01    0.01    0.00    0.00   61.32    3.20    8.07    0.03    0.00    0.00    0.00    0.00    0.40     0.00    0.00    0.00    0.00
  155    0.00    0.00    0.01    0.01    0.00    0.00   58.76    2.56    7.06    0.03    0.00    0.00    0.00    0.00    0.06     0.00    0.00    0.00    0.00
  156    0.40    0.00    0.01    0.01    0.00    0.00   57.54    1.63    4.32    0.02    0.00    0.00    0.00    0.00    0.38     0.00    0.00    0.00    0.00
  157   29.00    0.07    0.03    0.01    0.00    0.00   81.46    4.54    5.01    0.12    0.00    0.00    0.00    0.00    0.40     0.00    0.00    0.00    0.00
  158    0.00    0.00    0.03    0.01    0.00    0.00   75.37    6.09    8.84    0.05    0.00    0.00    0.00    0.00    1.43     0.00    0.00    0.00    0.00
  159    0.00    0.00    0.03    0.01    0.00    0.00   70.62    4.76    7.96    0.04    0.00    0.00    0.00    0.00    0.54     0.00    0.00    0.00    0.00
  160    0.00    0.00    0.03    0.01    0.00    0.00   64.73    5.91   11.13    0.04    0.00    0.00    0.00    0.00    0.06     0.00    0.00    0.00    0.00
  161    0.00    0.00    0.03    0.01    0.00    0.00   60.58    4.16    8.49    0.04    0.00    0.00    0.00    0.00    0.03     0.00    0.00    0.00    0.00
  162    0.00    0.00    0.02    0.01    0.00    0.00   56.86    3.73    9.42    0.04    0.00    0.00    0.00    0.00    0.05     0.00    0.00    0.00    0.00
  163    0.00    0.00    0.02    0.01    0.00    0.00   53.76    3.10    8.45    0.03    0.00    0.00    0.00    0.00    0.03     0.00    0.00    0.00    0.00
  164    0.00    0.00    0.02    0.01    0.00    0.00   51.54    2.23    7.09    0.03    0.00    0.00    0.00    0.00    0.03     0.00    0.00    0.00    0.00
  165    0.00    0.00    0.02    0.01    0.00    0.00   49.54    2.00    6.74    0.03    0.00    0.00    0.00    0.00    0.03     0.00    0.00    0.00    0.00
  166    0.00    0.00    0.02    0.01    0.00    0.00   47.38    2.18    8.46    0.03    0.00    0.00    0.00    0.00    0.03     0.00    0.00    0.00    0.00
  167    0.00    0.00    0.02    0.01    0.00    0.00   45.30    2.09    8.62    0.03    0.00    0.00    0.00    0.00    0.03     0.00    0.00    0.00    0.00
  168    0.00    0.00    0.02    0.01    0.00    0.00   43.05    2.26   10.30    0.03    0.00    0.00    0.00    0.00    0.03     0.00    0.00    0.00    0.00
  169   13.70    0.03    0.03    0.01    0.00    0.00   54.55    1.99    2.60    0.06    0.00    0.00    0.00    0.00    0.03     0.00    0.00    0.00    0.00
  170    0.00    0.00    0.02    0.01    0.00    0.00   49.50    5.07    7.68    0.03    0.00    0.00    0.00    0.00    0.03     0.00    0.00    0.00    0.00
  171    0.10    0.00    0.02    0.01    0.00    0.00   48.42    1.17    2.41    0.03    0.00    0.00    0.00    0.00    0.03     0.00    0.00    0.00    0.00
  172    4.00    0.00    0.02    0.01    0.00    0.00   50.22    2.17    3.09    0.03    0.00    0.00    0.00    0.00    0.03     0.00    0.00    0.00    0.00
  173    5.30    0.01    0.02    0.01    0.00    0.00   52.48    2.98    3.83    0.04    0.00    0.00    0.00    0.00    0.03     0.00    0.00    0.00    0.00
  174   12.40    0.02    0.03    0.01    0.00    0.00   63.10    1.58    1.86    0.06    0.00    0.00    0.00    0.00    0.03     0.00    0.00    0.00    0.00
  175    0.00    0.00    0.03    0.01    0.00    0.00   57.04    6.08    7.89    0.04    0.00    0.00    0.00    0.00    0.03     0.00    0.00    0.00    0.00
  176    0.00    0.00    0.03    0.01    0.00    0.00   51.79    5.26    9.08    0.04    0.00    0.00    0.00    0.00    0.03     0.00    0.00    0.00    0.00
  177    0.00    0.00    0.03    0.01    0.00    0.00   47.14    4.66    8.12    0.03    0.00    0.00    0.00    0.00    0.05     0.00    0.00    0.00    0.00
  178    2.70    0.00    0.03    0.00    0.00    0.00   47.33    2.50    3.91    0.03    0.00    0.00    0.00    0.00    0.12     0.00    0.00    0.00    0.00
  179    0.00    0.00    0.02    0.00    0.00    0.00   43.93    3.41    7.93    0.03    0.00    0.00    0.00    0.00    0.03     0.00    0.00    0.00    0.00
  180    0.00    0.00    0.02    0.00    0.00    0.00   41.85    2.08    7.53    0.03    0.00    0.00    0.00    0.00    0.05     0.00    0.00    0.00    0.00
  181    0.00    0.00    0.02    0.00    0.00    0.00   39.39    2.48   10.15    0.03    0.00    0.00    0.00    0.00    0.03     0.00    0.00    0.00    0.00
    6   67.60    0.14    0.69    0.24    0.00    0.00   39.39   98.25  213.43    1.12    0.00    0.00    0.00    0.00    4.60     0.00    0.00    0.00    0.00
  182    0.00    0.00    0.02    0.00    0.00    0.00   37.63    1.77    7.36    0.03    0.00    0.00    0.00    0.00    0.02     0.00    0.00    0.00    0.00
  183    5.80    0.01    0.02    0.00    0.00    0.00   42.01    1.35    2.27    0.04    0.00    0.00    0.00    0.00    0.02     0.00    0.00    0.00    0.00
  184   12.30    0.02    0.03    0.00    0.00    0.00   53.38    0.73    0.88    0.06    0.00    0.00    0.00    0.00    0.02     0.00    0.00    0.00    0.00
  185    0.10    0.00    0.03    0.00    0.00    0.00   51.08    2.41    3.03    0.04    0.00    0.00    0.00    0.00    0.03     0.00    0.00    0.00    0.00
  186    0.00    0.00    0.03    0.00    0.00    0.00   46.00    5.09    7.94    0.03    0.00    0.00    0.00    0.00    0.03     0.00    0.00    0.00    0.00
  187    0.00    0.00    0.02    0.00    0.00    0.00   40.48    5.53   10.32    0.03    0.00    0.00    0.00    0.00    0.12     0.00    0.00    0.00    0.00
  188    0.00    0.00    0.02    0.00    0.00    0.00   37.39    3.09    9.03    0.03    0.00    0.00    0.00    0.00    0.11     0.00    0.00    0.00    0.00
  189    0.00    0.00    0.02    0.00    0.00    0.00   35.43    1.97    8.52    0.03    0.00    0.00    0.00    0.00    0.04     0.00    0.00    0.00    0.00
  190    0.00    0.00    0.02    0.00    0.00    0.00   33.15    2.29   12.73    0.03    0.00    0.00    0.00    0.00    0.02     0.00    0.00    0.00    0.00
  191    0.00    0.00    0.02    0.00    0.00    0.00   31.53    1.63   10.21    0.02    0.00    0.00    0.00    0.00    0.02     0.00    0.00    0.00    0.00
  192    1.00    0.00    0.02    0.00    0.00    0.00   31.68    0.86    3.63    0.02    0.00    0.00    0.00    0.00    0.02     0.00    0.00    0.00    0.00
  193    0.00    0.00    0.02    0.00    0.00    0.00   30.10    1.59    9.15    0.02    0.00    0.00    0.00    0.00    0.02     0.00    0.00    0.00    0.00
  194    0.00    0.00    0.02    0.00    0.00    0.00   28.91    1.20    8.05    0.02    0.00    0.00    0.00    0.00    0.02     0.00    0.00    0.00    0.00
  195    0.00    0.00    0.02    0.00    0.00    0.00   28.05    0.87    6.80    0.02    0.00    0.00    0.00    0.00    0.02     0.00    0.00    0.00    0.00
  196    0.10    0.00    0.02    0.00    0.00    0.00   27.78    0.38    2.95    0.02    0.00    0.00    0.00    0.00    0.02     0.00    0.00    0.00    0.00
  197    1.10    0.00    0.02    0.00    0.00    0.00   28.04    0.85    3.87    0.02    0.00    0.00    0.00    0.00    0.02     0.00    0.00    0.00    0.00
  198    0.00    0.00    0.02    0.00    0.00    0.00   26.87    1.18    8.08    0.02    0.00    0.00    0.00    0.00    0.02     0.00    0.00    0.00    0.00
  199    0.20    0.00    0.01    0.00    0.00    0.00   26.78    0.29    2.17    0.02    0.00    0.00    0.00    0.00    0.02     0.00    0.00    0.00    0.00
  200    0.10    0.00    0.01    0.00    0.00    0.00   26.59    0.29    2.15    0.02    0.00    0.00    0.00    0.00    0.02     0.00    0.00    0.00    0.00
  201    7.70    0.01    0.02    0.00    0.00    0.00   32.93    1.26    2.43    0.03    0.00    0.00    0.00    0.00    0.02     0.00    0.00    0.00    0.00
  202    1.40    0.00    0.02    0.00    0.00    0.00   32.07    2.25    4.31    0.02    0.00    0.00    0.00    0.00    0.02     0.00    0.00    0.00    0.00
  203    1.20    0.00    0.02    0.00    0.00    0.00   32.20    1.07    2.49    0.02    0.00    0.00    0.00    0.00    0.03     0.00    0.00    0.00    0.00
  204    2.00    0.00    0.02    0.00    0.00    0.00   33.03    1.16    2.28    0.02    0.00    0.00    0.00    0.00    0.03     0.00    0.00    0.00    0.00
  205    0.00    0.00    0.02    0.00    0.00    0.00   30.23    2.81    8.43    0.02    0.00    0.00    0.00    0.00    0.03     0.00    0.00    0.00    0.00
  206    0.00    0.00    0.02    0.00    0.00    0.00   28.50    1.73   10.00    0.02    0.00    0.00    0.00    0.00    0.04     0.00    0.00    0.00    0.00
  207    0.00    0.00    0.01    0.00    0.00    0.00   27.25    1.27    8.99    0.02    0.00    0.00    0.00    0.00    0.03     0.00    0.00    0.00    0.00
  208    0.00    0.00    0.01    0.00    0.00    0.00   26.26    1.00    8.30    0.02    0.00    0.00    0.00    0.00    0.02     0.00    0.00    0.00    0.00
  209    0.00    0.00    0.01    0.00    0.00    0.00   25.27    1.00    9.62    0.02    0.00    0.00    0.00    0.00    0.02     0.00    0.00    0.00    0.00
  210    0.00    0.00    0.01    0.00    0.00    0.00   24.30    0.98   10.13    0.02    0.00    0.00    0.00    0.00    0.02     0.00    0.00    0.00    0.00
  211    0.00    0.00    0.01    0.00    0.00    0.00   23.28    1.03   12.31    0.01    0.00    0.00    0.00    0.00    0.02     0.00    0.00    0.00    0.00
  212    0.00    0.00    0.01    0.00    0.00    0.00   22.63    0.66    8.62    0.01    0.00    0.00    0.00    0.00    0.02     0.00    0.00    0.00    0.00
    7   33.00    0.04    0.57    0.08    0.00    0.00   22.63   49.57  207.04    0.74    0.00    0.00    0.00    0.00    0.96     0.00    0.00    0.00    0.00
  213    0.00    0.00    0.01    0.00    0.00    0.00   21.96    0.68    9.04    0.01    0.00    0.00    0.00    0.00    0.02     0.00    0.00    0.00    0.00
  214    0.00    0.00    0.01    0.00    0.00    0.00   21.38    0.58    8.80    0.01    0.00    0.00    0.00    0.00    0.02     0.00    0.00    0.00    0.00
  215    0.10    0.00    0.01    0.00    0.00    0.00   21.28    0.20    2.37    0.01    0.00    0.00    0.00    0.00    0.02     0.00    0.00    0.00    0.00
  216    0.00    0.00    0.01    0.00    0.00    0.00   20.76    0.54    7.71    0.01    0.00    0.00    0.00    0.00    0.02     0.00    0.00    0.00    0.00
  217    0.00    0.00    0.01    0.00    0.00    0.00   19.99    0.78   13.21    0.01    0.00    0.00    0.00    0.00    0.02     0.00    0.00    0.00    0.00
  218    0.00    0.00    0.01    0.00    0.00    0.00   19.54    0.45    8.07    0.01    0.00    0.00    0.00    0.00    0.02     0.00    0.00    0.00    0.00
  219    0.00    0.00    0.01    0.00    0.00    0.00   19.07    0.48    9.08    0.01    0.00    0.00    0.00    0.00    0.01     0.00    0.00    0.00    0.00
  220    0.00    0.00    0.01    0.00    0.00    0.00   18.61    0.47    9.37    0.01    0.00    0.00    0.00    0.00    0.01     0.00    0.00    0.00    0.00
  221    0.00    0.00    0.01    0.00    0.00    0.00   18.18    0.44    8.94    0.01    0.00    0.00    0.00    0.00    0.01     0.00    0.00    0.00    0.00
  222    0.00    0.00    0.01    0.00    0.00    0.00   17.81    0.38    7.97    0.01    0.00    0.00    0.00    0.00    0.01     0.00    0.00    0.00    0.00
  223    0.00    0.00    0.01    0.00    0.00    0.00   17.25    0.57   12.43    0.01    0.00    0.00    0.00    0.00    0.01     0.00    0.00    0.00    0.00
  224    0.00    0.00    0.01    0.00    0.00    0.00   16.84    0.41    9.42    0.01    0.00    0.00    0.00    0.00    0.01     0.00    0.00    0.00    0.00
  225    0.30    0.00    0.01    0.00    0.00    0.00   16.90    0.25    3.59    0.01    0.00    0.00    0.00    0.00    0.01     0.00    0.00    0.00    0.00
  226    1.60    0.00    0.01    0.00    0.00    0.00   17.65    0.85    3.80    0.01    0.00    0.00    0.00    0.00    0.01     0.00    0.00    0.00    0.00
  227    5.30    0.01    0.01    0.00    0.00    0.00   21.86    1.03    2.54    0.02    0.00    0.00    0.00    0.00    0.01     0.00    0.00    0.00    0.00
  228    4.30    0.00    0.01    0.00    0.00    0.00   24.79    1.32    2.85    0.02    0.00    0.00    0.00    0.00    0.01     0.00    0.00    0.00    0.00
  229    0.40    0.00    0.01    0.00    0.00    0.00   24.26    0.93    2.67    0.01    0.00    0.00    0.00    0.00    0.02     0.00    0.00    0.00    0.00
  230    0.00    0.00    0.01    0.00    0.00    0.00   21.92    2.35    8.59    0.01    0.00    0.00    0.00    0.00    0.01     0.00    0.00    0.00    0.00
  231    0.00    0.00    0.01    0.00    0.00    0.00   20.64    1.29   12.00    0.01    0.00    0.00    0.00    0.00    0.01     0.00    0.00    0.00    0.00
  232    0.00    0.00    0.01    0.00    0.00    0.00   20.08    0.57    6.79    0.01    0.00    0.00    0.00    0.00    0.01     0.00    0.00    0.00    0.00
  233    0.20    0.00    0.01    0.00    0.00    0.00   19.87    0.41    3.87    0.01    0.00    0.00    0.00    0.00    0.00     0.00    0.00    0.00    0.00
  234    0.00    0.00    0.01    0.00    0.00    0.00   18.98    0.90   11.70    0.01    0.00    0.00    0.00    0.00    0.00     0.00    0.00    0.00    0.00
  235    0.00    0.00    0.01    0.00    0.00    0.00   18.20    0.79   12.21    0.01    0.00    0.00    0.00    0.00    0.00     0.00    0.00    0.00    0.00
  236    0.00    0.00    0.01    0.00    0.00    0.00   17.70    0.51    8.57    0.01    0.00    0.00    0.00    0.00    0.00     0.00    0.00    0.00    0.00
  237    0.80    0.00    0.01    0.00    0.00    0.00   18.10    0.40    2.77    0.01    0.00    0.00    0.00    0.00    0.00     0.00    0.00    0.00    0.00
  238    0.00    0.00    0.01    0.00    0.00    0.00   17.19    0.92    8.98    0.01    0.00    0.00    0.00    0.00    0.00     0.00    0.00    0.00    0.00
  239    0.00    0.00    0.01    0.00    0.00    0.00   16.52    0.69   10.65    0.01    0.00    0.00    0.00    0.00    0.00     0.00    0.00    0.00    0.00
  240    0.00    0.00    0.01    0.00    0.00    0.00   16.20    0.33    5.94    0.01    0.00    0.00    0.00    0.00    0.00     0.00    0.00    0.00    0.00
  241    0.00    0.00    0.01    0.00    0.00    0.00   15.83    0.38    7.48    0.01    0.00    0.00    0.00    0.00    0.00     0.00    0.00    0.00    0.00
  242    0.00    0.00    0.01    0.00    0.00    0.00   15.22    0.62   12.37    0.01    0.00    0.00    0.00    0.00    0.00     0.00    0.00    0.00    0.00
  243    0.00    0.00    0.01    0.00    0.00    0.00   14.82    0.40    8.55    0.01    0.00    0.00    0.00    0.00    0.00     0.00    0.00    0.00    0.00
    8   13.00    0.01    0.27    0.02    0.00    0.00   14.82   20.93  242.34    0.34    0.00    0.00    0.00    0.00    0.31     0.00    0.00    0.00    0.00
  244    0.00    0.00    0.01    0.00    0.00    0.00   14.36    0.47   10.56    0.01    0.00    0.00    0.00    0.00    0.00     0.00    0.00    0.00    0.00
  245    0.00    0.00    0.01    0.00    0.00    0.00   14.01    0.36    8.36    0.01    0.00    0.00    0.00    0.00    0.00     0.00    0.00    0.00    0.00
  246    0.00    0.00    0.01    0.00    0.00    0.00   13.71    0.30    7.45    0.01    0.00    0.00    0.00    0.00    0.00     0.00    0.00    0.00    0.00
  247    0.00    0.00    0.01    0.00    0.00    0.00   13.46    0.26    7.68    0.01    0.00    0.00    0.00    0.00    0.00     0.00    0.00    0.00    0.00
  248    6.60    0.01    0.01    0.00    0.00    0.00   18.42    1.56    3.31    0.02    0.00    0.00    0.00    0.00    0.00     0.00    0.00    0.00    0.00
  249    1.40    0.00    0.01    0.00    0.00    0.00   18.45    1.37    3.26    0.01    0.00    0.00    0.00    0.00    0.00     0.00    0.00    0.00    0.00
  250    0.20    0.00    0.01    0.00    0.00    0.00   17.47    1.18    5.12    0.01    0.00    0.00    0.00    0.00    0.00     0.00    0.00    0.00    0.00
  251    0.00    0.00    0.01    0.00    0.00    0.00   16.49    0.99    7.73    0.01    0.00    0.00    0.00    0.00    0.00     0.00    0.00    0.00    0.00
  252    0.00    0.00    0.01    0.00    0.00    0.00   15.77    0.73    8.21    0.01    0.00    0.00    0.00    0.00    0.00     0.00    0.00    0.00    0.00
  253    0.60    0.00    0.01    0.00    0.00    0.00   15.95    0.42    3.20    0.01    0.00    0.00    0.00    0.00    0.00     0.00    0.00    0.00    0.00
  254    6.40    0.01    0.01    0.00    0.00    0.00   21.16    1.11    2.33    0.02    0.00    0.00    0.00    0.00    0.00     0.00    0.00    0.00    0.00
  255   12.10    0.02    0.02    0.00    0.00    0.00   31.25    1.82    2.78    0.04    0.00    0.00    0.00    0.00    0.00     0.00    0.00    0.00    0.00
  256    1.60    0.00    0.02    0.00    0.00    0.00   31.73    1.11    1.72    0.02    0.00    0.00    0.00    0.00    0.00     0.00    0.00    0.00    0.00
  257    6.00    0.01    0.02    0.00    0.00    0.00   35.82    1.82    2.60    0.03    0.00    0.00    0.00    0.00    0.00     0.00    0.00    0.00    0.00
  258    1.20    0.00    0.02    0.00    0.00    0.00   35.88    1.13    1.67    0.02    0.00    0.00    0.00    0.00    0.00     0.00    0.00    0.00    0.00
  259    0.00    0.00    0.02    0.00    0.00    0.00   32.65    3.24    7.70    0.02    0.00    0.00    0.00    0.00    0.00     0.00    0.00    0.00    0.00
  260    0.00    0.00    0.02    0.00    0.00    0.00   30.70    1.96    8.17    0.02    0.00    0.00    0.00    0.00    0.00     0.00    0.00    0.00    0.00
  261    0.00    0.00    0.01    0.00    0.00    0.00   29.60    1.11    5.77    0.02    0.00    0.00    0.00    0.00    0.00     0.00    0.00    0.00    0.00
  262    0.00    0.00    0.01    0.00    0.00    0.00   28.73    0.88    6.06    0.02    0.00    0.00    0.00    0.00    0.00     0.00    0.00    0.00    0.00
  263    0.00    0.00    0.01    0.00    0.00    0.00   27.98    0.75    5.86    0.01    0.00    0.00    0.00    0.00    0.00     0.00    0.00    0.00    0.00
  264    0.00    0.00    0.01    0.00    0.00    0.00   27.22    0.77    6.36    0.01    0.00    0.00    0.00    0.00    0.00     0.00    0.00    0.00    0.00
  265    0.00    0.00    0.01    0.00    0.00    0.00   26.36    0.86    7.61    0.01    0.00    0.00    0.00    0.00    0.00     0.00    0.00    0.00    0.00
  266    0.00    0.00    0.01    0.00    0.00    0.00   25.71    0.66    6.20    0.01    0.00    0.00    0.00    0.00    0.00     0.00    0.00    0.00    0.00
  267    0.00    0.00    0.01    0.00    0.00    0.00   25.00    0.71    6.92    0.01    0.00    0.00    0.00    0.00    0.00     0.00    0.00    0.00    0.00
  268    1.40    0.00    0.01    0.00    0.00    0.00   25.74    0.67    2.40    0.01    0.00    0.00    0.00    0.00    0.00     0.00    0.00    0.00    0.00
  269    0.00    0.00    0.01    0.00    0.00    0.00   24.44    1.30    6.68    0.01    0.00    0.00    0.00    0.00    0.00     0.00    0.00    0.00    0.00
  270    0.00    0.00    0.01    0.00    0.00    0.00   23.54    0.91    7.32    0.01    0.00    0.00    0.00    0.00    0.00     0.00    0.00    0.00    0.00
  271   10.20    0.02    0.01    0.00    0.00    0.00   31.80    1.80    2.90    0.03    0.00    0.00    0.00    0.00    0.00     0.00    0.00    0.00    0.00
  272   18.40    0.04    0.03    0.00    0.00    0.00   47.91    1.93    2.48    0.07    0.00    0.00    0.00    0.00    0.00     0.00    0.00    0.00    0.00
  273    0.50    0.00    0.03    0.00    0.00    0.00   47.87    0.54    0.97    0.03    0.00    0.00    0.00    0.00    0.00     0.00    0.00    0.00    0.00
    9   66.60    0.11    0.37    0.01    0.00    0.00   47.87   32.74  159.36    0.51    0.00    0.00    0.00    0.00    0.00     0.00    0.00    0.00    0.00
  274    0.00    0.00    0.03    0.00    0.00    0.00   45.06    2.81    5.45    0.03    0.00    0.00    0.00    0.00    0.00     0.00    0.00    0.00    0.00
  275    0.00    0.00    0.02    0.00    0.00    0.00   43.85    1.21    3.53    0.02    0.00    0.00    0.00    0.00    0.00     0.00    0.00    0.00    0.00
  276    0.00    0.00    0.02    0.00    0.00    0.00   42.43    1.43    4.46    0.02    0.00    0.00    0.00    0.00    0.00     0.00    0.00    0.00    0.00
  277    0.00    0.00    0.02    0.00    0.00    0.00   41.16    1.28    4.63    0.02    0.00    0.00    0.00    0.00    0.00     0.00    0.00    0.00    0.00
  278    0.00    0.00    0.02    0.00    0.00    0.00   40.44    0.72    3.09    0.02    0.00    0.00    0.00    0.00    0.00     0.00    0.00    0.00    0.00
  279    0.00    0.00    0.02    0.00    0.00    0.00   39.21    1.23    5.69    0.02    0.00    0.00    0.00    0.00    0.00     0.00    0.00    0.00    0.00
  280    0.00    0.00    0.02    0.00    0.00    0.00   38.27    0.95    5.06    0.02    0.00    0.00    0.00    0.00    0.00     0.00    0.00    0.00    0.00
  281    2.10    0.00    0.02    0.00    0.00    0.00   40.01    0.35    0.70    0.02    0.00    0.00    0.00    0.00    0.00     0.00    0.00    0.00    0.00
  282    1.20    0.00    0.02    0.00    0.00    0.00   40.55    0.65    1.00    0.02    0.00    0.00    0.00    0.00    0.00     0.00    0.00    0.00    0.00
  283    0.40    0.00    0.02    0.00    0.00    0.00   40.49    0.46    0.75    0.02    0.00    0.00    0.00    0.00    0.00     0.00    0.00    0.00    0.00
  284    2.10    0.00    0.02    0.00    0.00    0.00   42.02    0.55    0.82    0.02    0.00    0.00    0.00    0.00    0.00     0.00    0.00    0.00    0.00
  285    0.00    0.00    0.02    0.00    0.00    0.00   39.24    2.78    5.70    0.02    0.00    0.00    0.00    0.00    0.00     0.00    0.00    0.00    0.00
  286    0.00    0.00    0.01    0.00    0.00    0.00   38.16    1.08    4.60    0.02    0.00    0.00    0.00    0.00    0.00     0.00    0.00    0.00    0.00
  287   79.10    8.98    0.10    0.06    2.57    0.00  102.79    1.16    1.25    7.82    0.09    0.01    0.00    0.19    0.00     0.34    0.00    0.04    0.00
  288   20.30    1.13    0.12    0.16    3.78    0.00  116.99    0.68    0.73    2.36    0.00    0.00    0.00    0.33    0.00     0.10    0.00    0.01    0.00
  289    0.20    0.00    0.11    0.19    0.04    0.00  116.20    0.96    1.04    0.60    0.00    0.00    0.00    0.00    0.00     0.01    0.00    0.00    0.00
  290    3.70    0.00    0.10    0.22    0.70    0.00  117.47    1.64    1.74    0.38    0.00    0.00    0.00    0.04    0.00     0.00    0.00    0.00    0.00
  291    6.20    0.01    0.10    0.26    1.53    0.00  119.63    2.36    2.51    0.38    0.00    0.00    0.00    0.09    0.00     0.00    0.00    0.00    0.00
  292   32.80    4.07    0.13    0.42    7.10    0.00  137.75    2.78    2.95    4.13    0.02    0.00    0.00    0.44    0.00     0.11    0.00    0.01    0.00
  293    0.10    0.00    0.12    0.47    0.15    0.00  136.09    1.61    1.86    1.01    0.00    0.00    0.00    0.01    0.00     0.01    0.00    0.00    0.00
  294    0.00    0.00    0.11    0.48    0.01    0.00  132.47    3.61    4.35    0.67    0.00    0.00    0.00    0.00    0.00     0.00    0.00    0.00    0.00
  295    0.00    0.00    0.11    0.47    0.00    0.00  126.88    5.59    7.77    0.59    0.00    0.00    0.00    0.00    0.00     0.00    0.00    0.00    0.00
  296    0.10    0.00    0.10    0.46    0.00    0.00  124.62    2.37    3.90    0.56    0.00    0.00    0.00    0.00    0.00     0.00    0.00    0.00    0.00
  297    0.90    0.00    0.09    0.44    0.00    0.00  124.04    1.48    2.31    0.54    0.00    0.00    0.00    0.00    0.00     0.00    0.00    0.00    0.00
  298    1.60    0.00    0.09    0.43    0.00    0.00  123.53    2.11    2.40    0.52    0.00    0.00    0.00    0.00    0.00     0.00    0.00    0.00    0.00
  299    1.00    0.00    0.08    0.41    0.00    0.00  123.42    1.10    1.29    0.50    0.00    0.00    0.00    0.00    0.00     0.00    0.00    0.00    0.00
  300    0.00    0.00    0.08    0.40    0.00    0.00  120.89    2.54    3.53    0.48    0.00    0.00    0.00    0.00    0.00     0.00    0.00    0.00    0.00
  301    4.70    0.00    0.08    0.38    0.00    0.00  123.54    1.99    2.14    0.47    0.00    0.00    0.00    0.00    0.00     0.00    0.00    0.00    0.00
  302    7.50    0.01    0.08    0.37    0.00    0.00  130.00    0.93    0.99    0.46    0.00    0.00    0.00    0.00    0.00     0.00    0.00    0.00    0.00
  303    1.40    0.00    0.07    0.35    0.00    0.00  129.83    1.55    1.65    0.43    0.00    0.00    0.00    0.00    0.00     0.00    0.00    0.00    0.00
  304    0.00    0.00    0.07    0.34    0.00    0.00  126.59    3.25    3.82    0.41    0.00    0.00    0.00    0.00    0.00     0.00    0.00    0.00    0.00
   10  165.40   14.21    1.99    6.31   15.88    0.00  126.59   53.22   91.73   22.56    0.11    0.01    0.01    1.09    0.00     0.57    0.00    0.07    0.00
  305    5.30    0.01    0.07    0.33    0.00    0.00  130.46    1.35    1.43    0.41    0.00    0.00    0.00    0.00    0.00     0.00    0.00    0.00    0.00
  306    1.10    0.00    0.07    0.32    0.00    0.00  131.25    0.30    0.32    0.39    0.00    0.00    0.00    0.00    0.00     0.00    0.00    0.00    0.00
  307    0.00    0.00    0.06    0.30    0.00    0.00  126.90    4.36    4.61    0.37    0.00    0.00    0.00    0.00    0.00     0.00    0.00    0.00    0.00
  308    0.00    0.00    0.06    0.29    0.00    0.00  124.29    2.62    3.92    0.36    0.00    0.00    0.00    0.00    0.00     0.00    0.00    0.00    0.00
  309    0.00    0.00    0.06    0.28    0.00    0.00  122.43    1.86    3.11    0.34    0.00    0.00    0.00    0.00    0.00     0.00    0.00    0.00    0.00
  310    0.00    0.00    0.06    0.27    0.00    0.00  119.55    2.88    5.29    0.33    0.00    0.00    0.00    0.00    0.00     0.00    0.00    0.00    0.00
  311    0.00    0.00    0.05    0.26    0.00    0.00  118.01    1.54    3.15    0.32    0.00    0.00    0.00    0.00    0.00     0.00    0.00    0.00    0.00
  312    0.50    0.00    0.05    0.25    0.00    0.00  117.97    0.54    1.02    0.31    0.00    0.00    0.00    0.00    0.00     0.00    0.00    0.00    0.00
  313    0.00    0.00    0.05    0.24    0.00    0.00  114.71    3.26    6.43    0.30    0.00    0.00    0.00    0.00    0.00     0.00    0.00    0.00    0.00
  314    3.80    0.00    0.05    0.23    0.00    0.00  117.70    0.78    0.88    0.29    0.00    0.00    0.00    0.00    0.00     0.00    0.00    0.00    0.00
  315   14.10    0.08    0.06    0.22    0.00    0.00  130.70    0.76    0.81    0.36    0.00    0.00    0.00    0.00    0.00     0.00    0.00    0.00    0.00
  316    1.60    0.00    0.06    0.22    0.00    0.00  131.58    0.69    0.73    0.29    0.00    0.00    0.00    0.00    0.00     0.00    0.00    0.00    0.00
  317    0.40    0.00    0.05    0.21    0.00    0.00  130.91    1.07    1.13    0.27    0.00    0.00    0.00    0.00    0.00     0.00    0.00    0.00    0.00
  318    0.20    0.00    0.05    0.20    0.00    0.00  130.16    0.96    1.02    0.26    0.00    0.00    0.00    0.00    0.00     0.00    0.00    0.00    0.00
  319    8.60    0.02    0.06    0.19    0.03    0.00  137.93    0.57    0.61    0.27    0.00    0.00    0.00    0.00    0.00     0.00    0.00    0.00    0.00
  320    0.00    0.00    0.06    0.19    0.00    0.00  135.60    2.33    2.45    0.25    0.00    0.00    0.00    0.00    0.00     0.00    0.00    0.00    0.00
  321    1.00    0.00    0.05    0.18    0.00    0.00  134.99    1.61    1.70    0.24    0.00    0.00    0.00    0.00    0.00     0.00    0.00    0.00    0.00
  322    8.90    0.02    0.06    0.19    0.66    0.00  142.61    0.40    0.42    0.27    0.00    0.00    0.00    0.04    0.00     0.00    0.00    0.00    0.00
  323    4.30    0.00    0.06    0.21    1.08    0.00  144.52    1.19    1.25    0.29    0.00    0.00    0.00    0.06    0.00     0.00    0.00    0.00    0.00
  324    0.00    0.00    0.06    0.21    0.01    0.00  142.26    2.25    2.39    0.28    0.00    0.00    0.00    0.00    0.00     0.00    0.00    0.00    0.00
  325    0.50    0.00    0.06    0.21    0.00    0.00  142.26    0.51    0.56    0.27    0.00    0.00    0.00    0.00    0.00     0.00    0.00    0.00    0.00
  326    0.00    0.00    0.05    0.20    0.00    0.00  138.78    3.48    3.88    0.26    0.00    0.00    0.00    0.00    0.00     0.00    0.00    0.00    0.00
  327    0.70    0.00    0.05    0.20    0.00    0.00  138.96    0.53    0.62    0.25    0.00    0.00    0.00    0.00    0.00     0.00    0.00    0.00    0.00
  328   16.10    0.45    0.07    0.25    2.55    0.00  151.27    0.40    0.42    0.71    0.01    0.00    0.00    0.17    0.00     0.03    0.00    0.00    0.00
  329    1.80    0.00    0.07    0.27    0.54    0.00  151.33    1.15    1.21    0.39    0.00    0.00    0.00    0.03    0.00     0.00    0.00    0.00    0.00
  330   12.80    0.30    0.08    0.36    3.79    0.00  158.32    1.37    1.43    0.71    0.00    0.00    0.00    0.24    0.00     0.02    0.00    0.00    0.00
  331   43.00    9.78    0.12    0.57    8.49    0.00  181.40    0.78    0.82    9.19    0.23    0.00    0.00    0.49    0.00     0.89    0.00    0.11    0.00
  332    0.60    0.00    0.11    0.63    0.19    0.00  180.48    1.32    1.39    1.85    0.00    0.00    0.00    0.01    0.00     0.09    0.00    0.01    0.00
  333    0.10    0.00    0.11    0.64    0.01    0.00  180.18    0.39    0.41    0.94    0.00    0.00    0.00    0.00    0.00     0.01    0.00    0.00    0.00
  334    3.10    0.00    0.10    0.64    0.45    0.00  182.05    0.72    0.75    0.79    0.00    0.00    0.00    0.02    0.00     0.00    0.00    0.00    0.00
   11  128.50   10.66    1.98    8.77   17.82    0.00  182.05   41.96   54.14   21.56    0.24    0.00    0.01    1.06    0.00     1.05    0.00    0.13    0.00
  335    0.00    0.00    0.09    0.63    0.01    0.00  180.94    1.09    1.15    0.74    0.00    0.00    0.00    0.00    0.00     0.00    0.00    0.00    0.00
  336    0.00    0.00    0.09    0.61    0.00    0.00  179.46    1.49    1.58    0.71    0.00    0.00    0.00    0.00    0.00     0.00    0.00    0.00    0.00
  337    0.30    0.00    0.08    0.59    0.00    0.00  179.45    0.31    0.33    0.68    0.00    0.00    0.00    0.00    0.00     0.00    0.00    0.00    0.00
  338    0.40    0.00    0.08    0.56    0.00    0.00  179.75    0.10    0.10    0.65    0.00    0.00    0.00    0.00    0.00     0.00    0.00    0.00    0.00
  339    0.00    0.00    0.07    0.54    0.00    0.00  177.99    1.76    1.86    0.63    0.00    0.00    0.00    0.00    0.00     0.00    0.00    0.00    0.00
  340    0.00    0.00    0.07    0.52    0.00    0.00  176.50    1.50    1.64    0.60    0.00    0.00    0.00    0.00    0.00     0.00    0.00    0.00    0.00
  341    0.00    0.00    0.07    0.50    0.00    0.00  174.60    1.90    2.18    0.58    0.00    0.00    0.00    0.00    0.00     0.00    0.00    0.00    0.00
  342    0.00    0.00    0.06    0.49    0.00    0.00  172.10    2.51    3.08    0.56    0.00    0.00    0.00    0.00    0.00     0.00    0.00    0.00    0.00
  343    1.90    0.00    0.06    0.47    0.00    0.00  173.77    0.22    0.23    0.54    0.00    0.00    0.00    0.00    0.00     0.00    0.00    0.00    0.00
  344   88.90   38.42    0.13    0.78   14.70    0.00  207.04    0.91    0.95   33.82    0.67    0.02    0.00    0.54    0.00     2.48    0.01    0.31    0.00
  345    3.20    0.00    0.13    0.91    1.94    0.00  208.00    0.21    0.22    5.58    0.00    0.00    0.00    0.06    0.00     0.29    0.00    0.04    0.00
  346    0.00    0.00    0.12    0.95    0.29    0.00  206.56    1.15    1.20    1.87    0.00    0.00    0.00    0.01    0.00     0.05    0.00    0.01    0.00
  347    3.20    0.00    0.12    0.96    1.15    0.00  208.42    0.11    0.11    1.25    0.00    0.00    0.00    0.03    0.00     0.01    0.00    0.00    0.00
  348    0.00    0.00    0.11    0.95    0.16    0.00  206.86    1.40    1.46    1.10    0.00    0.00    0.00    0.00    0.00     0.00    0.00    0.00    0.00
  349    0.00    0.00    0.10    0.92    0.09    0.00  205.65    1.12    1.18    1.05    0.00    0.00    0.00    0.00    0.00     0.00    0.00    0.00    0.00
  350    5.10    0.01    0.10    0.92    1.38    0.00  209.10    0.15    0.16    1.05    0.00    0.00    0.00    0.04    0.00     0.00    0.00    0.00    0.00
  351    0.00    0.00    0.10    0.90    0.12    0.00  205.95    3.04    3.16    1.01    0.00    0.00    0.00    0.00    0.00     0.00    0.00    0.00    0.00
  352    0.00    0.00    0.09    0.88    0.06    0.00  203.52    2.38    2.59    0.98    0.00    0.00    0.00    0.00    0.00     0.00    0.00    0.00    0.00
  353    0.00    0.00    0.09    0.85    0.01    0.00  202.14    1.37    1.58    0.95    0.00    0.00    0.00    0.00    0.00     0.00    0.00    0.00    0.00
  354    0.00    0.00    0.08    0.82    0.00    0.00  200.61    1.53    1.84    0.91    0.00    0.00    0.00    0.00    0.00     0.00    0.00    0.00    0.00
  355    0.00    0.00    0.08    0.79    0.00    0.00  199.65    0.97    1.20    0.88    0.00    0.00    0.00    0.00    0.00     0.00    0.00    0.00    0.00
  356    0.00    0.00    0.08    0.76    0.00    0.00  197.05    2.59    3.33    0.85    0.00    0.00    0.00    0.00    0.00     0.00    0.00    0.00    0.00
  357    0.00    0.00    0.07    0.73    0.00    0.00  195.26    1.79    2.47    0.82    0.00    0.00    0.00    0.00    0.00     0.00    0.00    0.00    0.00
  358    0.00    0.00    0.07    0.70    0.00    0.00  194.58    0.69    0.99    0.79    0.00    0.00    0.00    0.00    0.00     0.00    0.00    0.00    0.00
  359    0.00    0.00    0.07    0.68    0.00    0.00  193.60    0.97    1.43    0.76    0.00    0.00    0.00    0.00    0.00     0.00    0.00    0.00    0.00
  360    0.00    0.00    0.06    0.65    0.00    0.00  192.02    1.59    2.41    0.73    0.00    0.00    0.00    0.00    0.00     0.00    0.00    0.00    0.00
  361    0.00    0.00    0.06    0.63    0.00    0.00  191.04    0.98    1.56    0.70    0.00    0.00    0.00    0.00    0.00     0.00    0.00    0.00    0.00
  362    0.00    0.00    0.06    0.60    0.00    0.00  189.35    1.70    2.79    0.68    0.00    0.00    0.00    0.00    0.01     0.00    0.00    0.00    0.00
  363    0.00    0.00    0.06    0.58    0.00    0.00  188.50    0.85    1.45    0.65    0.00    0.00    0.00    0.00    0.00     0.00    0.00    0.00    0.00
  364    0.00    0.00    0.05    0.56    0.00    0.00  186.67    1.84    3.20    0.63    0.00    0.00    0.00    0.00    0.01     0.00    0.00    0.00    0.00
  365    0.00    0.00    0.05    0.54    0.00    0.00  184.04    2.63    4.79    0.61    0.00    0.00    0.00    0.00    0.01     0.00    0.00    0.00    0.00
   12  103.00   38.43    2.58   21.96   19.90    0.00  184.04   40.83   52.23   63.32    0.67    0.02    0.01    0.70    0.03     2.83    0.01    0.36    0.00

 1985  854.70   68.57   12.01   45.31   62.31    0.00  184.04  613.28 1468.44  126.80    1.27    0.06    0.10    6.49   61.04     5.44    0.02    0.68    0.00
1
    SWAT Dec 23 2016    VER 2016/Rev 664                                            

    General Input/Output section (file.cio):                                        
    4/9/2015 12:00:00 AM ARCGIS-SWAT interface AV                                   
                                                                                    
    FINAL VALUES

1
    SWAT Dec 23 2016    VER 2016/Rev 664                                            

    General Input/Output section (file.cio):                                        
    4/9/2015 12:00:00 AM ARCGIS-SWAT interface AV                                   
                                                                                    
                                            Average Plant Values (kg/ha)

  HRU       1 SUB   1 AGRL  Yld =  3817.4 BIOM =  11432.3
  HRU       2 SUB   1 AGRL  Yld =  3749.2 BIOM =  11174.8
  HRU       3 SUB   1 AGRL  Yld =  4883.5 BIOM =  14037.8
  HRU       4 SUB   1 AGRL  Yld =  2265.2 BIOM =   6873.3
  HRU       5 SUB   1 AGRL  Yld =  2889.8 BIOM =   8915.4
  HRU       6 SUB   1 PAST  Yld =  5455.2 BIOM =   7773.0
  HRU       7 SUB   1 PAST  Yld =  4361.5 BIOM =   6090.2
  HRU       8 SUB   1 PAST  Yld =  5145.0 BIOM =   7187.6
  HRU       9 SUB   1 PAST  Yld =  5921.0 BIOM =   8360.1
  HRU      10 SUB   1 PAST  Yld =  3528.9 BIOM =   4919.0
  HRU      11 SUB   1 PAST  Yld =  6463.1 BIOM =   9129.4
  HRU      12 SUB   1 PAST  Yld =  1839.2 BIOM =   2563.0
  HRU      13 SUB   1 PAST  Yld =  2978.1 BIOM =   4153.4
  HRU      14 SUB   1 FRSE  Yld =  2652.9 BIOM =   9159.7
  HRU      15 SUB   1 FRSE  Yld =  3111.3 BIOM =  10750.3
  HRU      16 SUB   1 FRSE  Yld =  2024.3 BIOM =   6978.8
  HRU      17 SUB   1 FRSE  Yld =  3228.9 BIOM =  11157.9
  HRU      18 SUB   1 FRSE  Yld =  1991.4 BIOM =   6864.6
  HRU      19 SUB   1 FRSE  Yld =  2314.9 BIOM =   7987.2
  HRU      20 SUB   1 FRSD  Yld =  8521.2 BIOM =  12173.1
  HRU      21 SUB   1 FRSD  Yld =  7561.0 BIOM =  10801.5
  HRU      22 SUB   1 FRSD  Yld =  4397.9 BIOM =   6282.7
  HRU      23 SUB   1 FRSD  Yld =  7812.2 BIOM =  11160.2
  HRU      24 SUB   1 FRSD  Yld =  4512.6 BIOM =   6446.6
  HRU      25 SUB   1 FRSD  Yld =  5215.3 BIOM =   7450.4
  HRU      26 SUB   1 WETF  Yld = 11193.1 BIOM =  11193.1
  HRU      27 SUB   1 WETF  Yld =  9937.9 BIOM =   9937.9
  HRU      28 SUB   1 WETF  Yld =  5495.8 BIOM =   5495.8
  HRU      29 SUB   1 WETF  Yld = 10427.4 BIOM =  10427.4
  HRU      30 SUB   1 WETF  Yld =  5121.8 BIOM =   5121.8
  HRU      31 SUB   1 WATR  Yld =     0.0 BIOM =      0.0
  HRU      32 SUB   1 BERM  Yld =  8156.1 BIOM =  11531.0
  HRU      33 SUB   1 BERM  Yld =  8230.4 BIOM =  11650.6
  HRU      34 SUB   1 BERM  Yld = 10640.8 BIOM =  15280.5
  HRU      35 SUB   1 BERM  Yld =  6782.5 BIOM =   9551.4
  HRU      36 SUB   1 BERM  Yld = 10662.1 BIOM =  15300.7
  HRU      37 SUB   1 BERM  Yld =  7037.7 BIOM =   9911.4
  HRU      38 SUB   1 BERM  Yld =  7267.5 BIOM =  10236.0
  HRU      39 SUB   2 AGRL  Yld =  3814.8 BIOM =  11427.0
  HRU      40 SUB   2 AGRL  Yld =  3749.4 BIOM =  11175.4
  HRU      41 SUB   2 AGRL  Yld =  4883.5 BIOM =  14038.0
  HRU      42 SUB   2 AGRL  Yld =  2889.8 BIOM =   8915.7
  HRU      43 SUB   2 PAST  Yld =  5455.3 BIOM =   7773.5
  HRU      44 SUB   2 PAST  Yld =  4359.9 BIOM =   6087.9
  HRU      45 SUB   2 PAST  Yld =  5144.0 BIOM =   7186.2
  HRU      46 SUB   2 PAST  Yld =  3543.6 BIOM =   4940.5
  HRU      47 SUB   2 PAST  Yld =  6463.3 BIOM =   9129.8
  HRU      48 SUB   2 PAST  Yld =  1893.8 BIOM =   2638.9
  HRU      49 SUB   2 PAST  Yld =  2978.3 BIOM =   4153.7
  HRU      50 SUB   2 FRSE  Yld =  3336.9 BIOM =  11532.9
  HRU      51 SUB   2 FRSE  Yld =  2651.9 BIOM =   9156.2
  HRU      52 SUB   2 FRSE  Yld =  1982.0 BIOM =   6832.1
  HRU      53 SUB   2 FRSE  Yld =  3227.5 BIOM =  11153.4
  HRU      54 SUB   2 FRSE  Yld =  1845.2 BIOM =   6357.4
  HRU      55 SUB   2 FRSE  Yld =  2309.4 BIOM =   7968.1
  HRU      56 SUB   2 FRSD  Yld =  8435.0 BIOM =  12050.0
  HRU      57 SUB   2 FRSD  Yld =  4528.4 BIOM =   6469.1
  HRU      58 SUB   2 FRSD  Yld =  3923.4 BIOM =   5604.8
  HRU      59 SUB   2 FRSD  Yld =  5216.7 BIOM =   7452.4
  HRU      60 SUB   2 WETF  Yld = 11039.0 BIOM =  11039.0
  HRU      61 SUB   2 WETF  Yld =  5536.1 BIOM =   5536.1
  HRU      62 SUB   2 WETF  Yld =  3329.5 BIOM =   3329.5
  HRU      63 SUB   2 BERM  Yld =  8152.2 BIOM =  11525.2
  HRU      64 SUB   2 BERM  Yld =  8230.3 BIOM =  11650.5
  HRU      65 SUB   2 BERM  Yld = 10662.4 BIOM =  15301.1
  HRU      66 SUB   2 BERM  Yld =  6997.6 BIOM =   9852.5
  HRU      67 SUB   3 AGRL  Yld =  3820.9 BIOM =  11440.5
  HRU      68 SUB   3 PAST  Yld =  4360.7 BIOM =   6089.0
  HRU      69 SUB   3 PAST  Yld =  5145.0 BIOM =   7187.6
  HRU      70 SUB   3 PAST  Yld =  5951.4 BIOM =   8406.8
  HRU      71 SUB   3 PAST  Yld =  3000.8 BIOM =   4181.8
  HRU      72 SUB   3 PAST  Yld =  6469.0 BIOM =   9138.1
  HRU      73 SUB   3 PAST  Yld =  1830.1 BIOM =   2550.3
  HRU      74 SUB   3 PAST  Yld =  3349.2 BIOM =   4667.9
  HRU      75 SUB   3 FRSE  Yld =  2698.2 BIOM =   9316.9
  HRU      76 SUB   3 FRSE  Yld =  3115.9 BIOM =  10766.0
  HRU      77 SUB   3 FRSE  Yld =  1957.4 BIOM =   6746.9
  HRU      78 SUB   3 FRSE  Yld =  2092.9 BIOM =   7216.9
  HRU      79 SUB   3 FRSE  Yld =  1999.7 BIOM =   6893.7
  HRU      80 SUB   3 FRSD  Yld =  6144.3 BIOM =   8777.5
  HRU      81 SUB   3 FRSD  Yld =  6150.4 BIOM =   8786.3
  HRU      82 SUB   3 FRSD  Yld =  7589.2 BIOM =  10841.8
  HRU      83 SUB   3 FRSD  Yld =  4214.7 BIOM =   6021.0
  HRU      84 SUB   3 FRSD  Yld =  7813.1 BIOM =  11161.5
  HRU      85 SUB   3 FRSD  Yld =  4593.1 BIOM =   6561.5
  HRU      86 SUB   3 FRSD  Yld =  4638.7 BIOM =   6626.7
  HRU      87 SUB   3 WETF  Yld =  7917.6 BIOM =   7917.6
  HRU      88 SUB   3 WETF  Yld =  9964.5 BIOM =   9964.5
  HRU      89 SUB   3 WETF  Yld =  5184.8 BIOM =   5184.8
  HRU      90 SUB   3 WETF  Yld = 10428.3 BIOM =  10428.3
  HRU      91 SUB   3 WETF  Yld =  5617.5 BIOM =   5617.5
  HRU      92 SUB   3 WATR  Yld =     0.0 BIOM =      0.0
  HRU      93 SUB   3 BERM  Yld =  8156.9 BIOM =  11531.8
  HRU      94 SUB   3 BERM  Yld =  8231.6 BIOM =  11652.1
  HRU      95 SUB   3 BERM  Yld =  6740.2 BIOM =   9495.1
  HRU      96 SUB   3 BERM  Yld = 10667.1 BIOM =  15307.8
  HRU      97 SUB   3 BERM  Yld =  7064.6 BIOM =   9950.6
  HRU      98 SUB   3 BERM  Yld =  6947.1 BIOM =   9775.3
  HRU      99 SUB   4 AGRL  Yld =  3813.3 BIOM =  11424.2
  HRU     100 SUB   4 AGRL  Yld =  3746.8 BIOM =  11169.6
  HRU     101 SUB   4 AGRL  Yld =  4883.9 BIOM =  14039.4
  HRU     102 SUB   4 AGRL  Yld =  2887.4 BIOM =   8909.8
  HRU     103 SUB   4 PAST  Yld =  5453.3 BIOM =   7766.2
  HRU     104 SUB   4 PAST  Yld =  4354.9 BIOM =   6080.8
  HRU     105 SUB   4 PAST  Yld =  5143.8 BIOM =   7185.9
  HRU     106 SUB   4 PAST  Yld =  6465.7 BIOM =   9133.2
  HRU     107 SUB   4 PAST  Yld =  1871.7 BIOM =   2608.2
  HRU     108 SUB   4 PAST  Yld =  2978.2 BIOM =   4153.7
  HRU     109 SUB   4 FRSE  Yld =  3313.5 BIOM =  11451.5
  HRU     110 SUB   4 FRSE  Yld =  2063.8 BIOM =   7115.9
  HRU     111 SUB   4 FRSE  Yld =  2312.0 BIOM =   7977.1
  HRU     112 SUB   4 FRSD  Yld =  8510.9 BIOM =  12158.4
  HRU     113 SUB   4 FRSD  Yld =  7812.4 BIOM =  11160.6
  HRU     114 SUB   4 FRSD  Yld =  4571.9 BIOM =   6531.3
  HRU     115 SUB   4 WETF  Yld = 11145.2 BIOM =  11145.2
  HRU     116 SUB   4 WETF  Yld = 10427.2 BIOM =  10427.2
  HRU     117 SUB   4 WETF  Yld =  5525.1 BIOM =   5525.1
  HRU     118 SUB   4 BERM  Yld =  8155.4 BIOM =  11529.7
  HRU     119 SUB   4 BERM  Yld =  8229.4 BIOM =  11649.0
  HRU     120 SUB   4 BERM  Yld = 10664.2 BIOM =  15303.6
  HRU     121 SUB   4 BERM  Yld =  6538.6 BIOM =   9176.4
  HRU     122 SUB   4 BERM  Yld =  7265.3 BIOM =  10232.5
  HRU     123 SUB   5 AGRL  Yld =  3812.9 BIOM =  11423.2
  HRU     124 SUB   5 AGRL  Yld =  3747.4 BIOM =  11171.1
  HRU     125 SUB   5 AGRL  Yld =  4883.8 BIOM =  14038.8
  HRU     126 SUB   5 AGRL  Yld =  2887.1 BIOM =   8908.7
  HRU     127 SUB   5 PAST  Yld =  4355.9 BIOM =   6082.3
  HRU     128 SUB   5 PAST  Yld =  5144.1 BIOM =   7186.4
  HRU     129 SUB   5 PAST  Yld =  6464.9 BIOM =   9132.0
  HRU     130 SUB   5 PAST  Yld =  1758.1 BIOM =   2450.2
  HRU     131 SUB   5 FRSE  Yld =  2686.7 BIOM =   9277.1
  HRU     132 SUB   5 FRSE  Yld =  2642.7 BIOM =   9124.5
  HRU     133 SUB   5 FRSD  Yld =  6171.9 BIOM =   8817.0
  HRU     134 SUB   5 FRSD  Yld =  6155.6 BIOM =   8793.8
  HRU     135 SUB   5 BERM  Yld =  8154.6 BIOM =  11528.6
  HRU     136 SUB   5 BERM  Yld =  8229.4 BIOM =  11649.0
  HRU     137 SUB   5 BERM  Yld = 10663.1 BIOM =  15301.9
  HRU     138 SUB   5 BERM  Yld =  7075.4 BIOM =   9966.7
  HRU     139 SUB   6 AGRL  Yld =  3820.0 BIOM =  11438.4
  HRU     140 SUB   6 AGRL  Yld =  3749.7 BIOM =  11176.9
  HRU     141 SUB   6 AGRL  Yld =  2037.1 BIOM =   6198.3
  HRU     142 SUB   6 AGRL  Yld =  4884.2 BIOM =  14040.1
  HRU     143 SUB   6 AGRL  Yld =  4034.8 BIOM =  11971.0
  HRU     144 SUB   6 AGRL  Yld =  2394.0 BIOM =   7337.1
  HRU     145 SUB   6 PAST  Yld =  4366.1 BIOM =   6096.7
  HRU     146 SUB   6 PAST  Yld =  5146.2 BIOM =   7189.3
  HRU     147 SUB   6 PAST  Yld =  5960.5 BIOM =   8420.9
  HRU     148 SUB   6 PAST  Yld =  3000.4 BIOM =   4181.4
  HRU     149 SUB   6 PAST  Yld =  6466.7 BIOM =   9134.7
  HRU     150 SUB   6 PAST  Yld =  4613.2 BIOM =   6444.9
  HRU     151 SUB   6 PAST  Yld =  3350.2 BIOM =   4669.3
  HRU     152 SUB   6 WATR  Yld =     0.0 BIOM =      0.0
  HRU     153 SUB   6 BERM  Yld =  8160.1 BIOM =  11536.7
  HRU     154 SUB   6 BERM  Yld =  6722.5 BIOM =   9469.3
  HRU     155 SUB   6 BERM  Yld = 10664.4 BIOM =  15303.9
  HRU     156 SUB   6 BERM  Yld =  8493.8 BIOM =  12033.4
  HRU     157 SUB   6 BERM  Yld =  6946.7 BIOM =   9774.9
  HRU     158 SUB   7 AGRL  Yld =  3751.4 BIOM =  11181.4
  HRU     159 SUB   7 AGRL  Yld =  2036.8 BIOM =   6198.0
  HRU     160 SUB   7 AGRL  Yld =  4884.7 BIOM =  14041.7
  HRU     161 SUB   7 AGRL  Yld =  4035.7 BIOM =  11973.7
  HRU     162 SUB   7 AGRL  Yld =  2394.3 BIOM =   7338.8
  HRU     163 SUB   7 PAST  Yld =  5458.4 BIOM =   7782.8
  HRU     164 SUB   7 PAST  Yld =  6448.8 BIOM =   9129.1
  HRU     165 SUB   7 PAST  Yld =  4348.6 BIOM =   6071.9
  HRU     166 SUB   7 PAST  Yld =  5144.1 BIOM =   7186.2
  HRU     167 SUB   7 PAST  Yld =  5947.8 BIOM =   8401.3
  HRU     168 SUB   7 PAST  Yld =  3002.9 BIOM =   4184.8
  HRU     169 SUB   7 PAST  Yld =  3538.6 BIOM =   4933.9
  HRU     170 SUB   7 PAST  Yld =  6468.2 BIOM =   9136.9
  HRU     171 SUB   7 PAST  Yld =  4613.6 BIOM =   6445.4
  HRU     172 SUB   7 PAST  Yld =  3349.4 BIOM =   4668.1
  HRU     173 SUB   7 FRSE  Yld =  3204.4 BIOM =  11073.2
  HRU     174 SUB   7 FRSE  Yld =  1923.4 BIOM =   6628.8
  HRU     175 SUB   7 FRSD  Yld =  7830.3 BIOM =  11186.1
  HRU     176 SUB   7 FRSD  Yld =  4148.0 BIOM =   5925.8
  HRU     177 SUB   7 FRSD  Yld =  7813.5 BIOM =  11162.1
  HRU     178 SUB   7 WETF  Yld = 10546.3 BIOM =  10546.3
  HRU     179 SUB   7 WETF  Yld = 10013.3 BIOM =  10013.3
  HRU     180 SUB   7 WETF  Yld =  5146.1 BIOM =   5146.1
  HRU     181 SUB   7 WETF  Yld =  5766.4 BIOM =   5766.4
  HRU     182 SUB   7 WETF  Yld = 10429.1 BIOM =  10429.1
  HRU     183 SUB   7 WETF  Yld =  8148.7 BIOM =   8148.7
  HRU     184 SUB   7 WATR  Yld =     0.0 BIOM =      0.0
  HRU     185 SUB   7 BERM  Yld = 11523.1 BIOM =  16587.3
  HRU     186 SUB   7 BERM  Yld =  6727.8 BIOM =   9477.1
  HRU     187 SUB   7 BERM  Yld = 10665.5 BIOM =  15305.5
  HRU     188 SUB   7 BERM  Yld =  8497.5 BIOM =  12038.5
  HRU     189 SUB   7 BERM  Yld =  6946.9 BIOM =   9775.1
  HRU     190 SUB   8 PAST  Yld =  5454.5 BIOM =   7770.6
  HRU     191 SUB   8 PAST  Yld =  5879.3 BIOM =   8262.7
  HRU     192 SUB   8 PAST  Yld =  4354.7 BIOM =   6080.6
  HRU     193 SUB   8 PAST  Yld =  5145.3 BIOM =   7188.1
  HRU     194 SUB   8 PAST  Yld =  3529.5 BIOM =   4919.9
  HRU     195 SUB   8 PAST  Yld =  1983.0 BIOM =   2763.0
  HRU     196 SUB   8 PAST  Yld =  2977.8 BIOM =   4153.1
  HRU     197 SUB   8 FRSE  Yld =  3357.2 BIOM =  11603.1
  HRU     198 SUB   8 FRSE  Yld =  2645.8 BIOM =   9135.1
  HRU     199 SUB   8 FRSE  Yld =  2024.9 BIOM =   6981.0
  HRU     200 SUB   8 FRSE  Yld =  1967.1 BIOM =   6780.4
  HRU     201 SUB   8 FRSD  Yld =  8394.0 BIOM =  11991.4
  HRU     202 SUB   8 FRSD  Yld =  4526.7 BIOM =   6466.8
  HRU     203 SUB   8 FRSD  Yld =  4238.0 BIOM =   6054.3
  HRU     204 SUB   8 FRSD  Yld =  5215.3 BIOM =   7450.5
  HRU     205 SUB   8 WETF  Yld = 11141.0 BIOM =  11141.0
  HRU     206 SUB   8 WETF  Yld =  5689.2 BIOM =   5689.2
  HRU     207 SUB   8 BERM  Yld =  8144.5 BIOM =  11513.6
  HRU     208 SUB   8 BERM  Yld =  8230.3 BIOM =  11650.3
  HRU     209 SUB   8 BERM  Yld =  7045.1 BIOM =   9922.1
  HRU     210 SUB   9 PAST  Yld =  4350.8 BIOM =   6075.0
  HRU     211 SUB   9 PAST  Yld =  5143.7 BIOM =   7185.7
  HRU     212 SUB   9 PAST  Yld =  5946.9 BIOM =   8399.8
  HRU     213 SUB   9 PAST  Yld =  3001.5 BIOM =   4182.9
  HRU     214 SUB   9 PAST  Yld =  6467.8 BIOM =   9136.4
  HRU     215 SUB   9 FRSE  Yld =  3114.5 BIOM =  10761.1
  HRU     216 SUB   9 FRSE  Yld =  1946.1 BIOM =   6707.6
  HRU     217 SUB   9 FRSE  Yld =  3228.6 BIOM =  11156.9
  HRU     218 SUB   9 FRSD  Yld =  6166.0 BIOM =   8808.5
  HRU     219 SUB   9 FRSD  Yld =  7582.9 BIOM =  10832.7
  HRU     220 SUB   9 FRSD  Yld =  4194.1 BIOM =   5991.5
  HRU     221 SUB   9 FRSD  Yld =  7812.8 BIOM =  11161.1
  HRU     222 SUB   9 WETF  Yld = 10537.9 BIOM =  10537.9
  HRU     223 SUB   9 WETF  Yld =  5150.0 BIOM =   5150.0
  HRU     224 SUB   9 WETF  Yld = 10428.6 BIOM =  10428.6
  HRU     225 SUB   9 BERM  Yld =  6674.9 BIOM =   9399.2
  HRU     226 SUB  10 AGRL  Yld =  3815.2 BIOM =  11428.3
  HRU     227 SUB  10 AGRL  Yld =  3749.9 BIOM =  11177.4
  HRU     228 SUB  10 AGRL  Yld =  2037.8 BIOM =   6200.2
  HRU     229 SUB  10 PAST  Yld =  6053.4 BIOM =   8527.1
  HRU     230 SUB  10 PAST  Yld =  4355.2 BIOM =   6081.2
  HRU     231 SUB  10 PAST  Yld =  5144.3 BIOM =   7186.7
  HRU     232 SUB  10 PAST  Yld =  5902.4 BIOM =   8331.0
  HRU     233 SUB  10 PAST  Yld =  2997.3 BIOM =   4177.1
  HRU     234 SUB  10 PAST  Yld =  3510.6 BIOM =   4892.6
  HRU     235 SUB  10 PAST  Yld =  6466.9 BIOM =   9135.0
  HRU     236 SUB  10 PAST  Yld =  1942.4 BIOM =   2706.6
  HRU     237 SUB  10 PAST  Yld =  2978.0 BIOM =   4153.3
  HRU     238 SUB  10 FRSE  Yld =  2700.0 BIOM =   9323.2
  HRU     239 SUB  10 FRSE  Yld =  2314.6 BIOM =   7985.9
  HRU     240 SUB  10 FRSD  Yld =  6152.6 BIOM =   8789.4
  HRU     241 SUB  10 FRSD  Yld =  7412.3 BIOM =  10589.1
  HRU     242 SUB  10 FRSD  Yld =  3909.3 BIOM =   5584.7
  HRU     243 SUB  10 WETF  Yld =  7912.4 BIOM =   7912.4
  HRU     244 SUB  10 WETF  Yld =  9685.9 BIOM =   9685.9
  HRU     245 SUB  10 WETF  Yld =  3331.8 BIOM =   3331.8
  HRU     246 SUB  10 BERM  Yld =  8155.7 BIOM =  11530.2
  HRU     247 SUB  10 BERM  Yld =  8229.8 BIOM =  11649.5
  HRU     248 SUB  10 BERM  Yld =  6743.8 BIOM =   9500.5
  HRU     249 SUB  11 AGRL  Yld =  3815.1 BIOM =  11427.9
  HRU     250 SUB  11 AGRL  Yld =  3749.4 BIOM =  11175.9
  HRU     251 SUB  11 AGRL  Yld =  4983.4 BIOM =  14305.0
  HRU     252 SUB  11 AGRL  Yld =  2036.4 BIOM =   6195.7
  HRU     253 SUB  11 AGRL  Yld =  4884.0 BIOM =  14039.5
  HRU     254 SUB  11 PAST  Yld =  4359.9 BIOM =   6087.9
  HRU     255 SUB  11 PAST  Yld =  5145.2 BIOM =   7187.9
  HRU     256 SUB  11 PAST  Yld =  5952.2 BIOM =   8408.3
  HRU     257 SUB  11 PAST  Yld =  2999.9 BIOM =   4180.6
  HRU     258 SUB  11 PAST  Yld =  3503.4 BIOM =   4882.4
  HRU     259 SUB  11 PAST  Yld =  6465.5 BIOM =   9133.0
  HRU     260 SUB  11 PAST  Yld =  1894.0 BIOM =   2639.2
  HRU     261 SUB  11 PAST  Yld =  2978.0 BIOM =   4153.4
  HRU     262 SUB  11 FRSE  Yld =  2692.7 BIOM =   9297.7
  HRU     263 SUB  11 FRSE  Yld =  2653.9 BIOM =   9163.3
  HRU     264 SUB  11 FRSE  Yld =  3104.1 BIOM =  10725.3
  HRU     265 SUB  11 FRSE  Yld =  1983.4 BIOM =   6837.1
  HRU     266 SUB  11 FRSE  Yld =  3228.6 BIOM =  11156.9
  HRU     267 SUB  11 FRSE  Yld =  2085.8 BIOM =   7192.4
  HRU     268 SUB  11 FRSE  Yld =  2315.5 BIOM =   7989.1
  HRU     269 SUB  11 FRSD  Yld =  6151.8 BIOM =   8788.3
  HRU     270 SUB  11 FRSD  Yld =  6157.0 BIOM =   8795.8
  HRU     271 SUB  11 FRSD  Yld =  7565.5 BIOM =  10807.8
  HRU     272 SUB  11 FRSD  Yld =  4437.8 BIOM =   6339.6
  HRU     273 SUB  11 FRSD  Yld =  7813.0 BIOM =  11161.5
  HRU     274 SUB  11 FRSD  Yld =  4600.8 BIOM =   6572.6
  HRU     275 SUB  11 FRSD  Yld =  5216.2 BIOM =   7451.8
  HRU     276 SUB  11 WETF  Yld =  7939.7 BIOM =   7939.7
  HRU     277 SUB  11 WETF  Yld =  9934.9 BIOM =   9934.9
  HRU     278 SUB  11 WETF  Yld =  5497.9 BIOM =   5497.9
  HRU     279 SUB  11 WETF  Yld = 10428.2 BIOM =  10428.2
  HRU     280 SUB  11 WETF  Yld =  5657.7 BIOM =   5657.7
  HRU     281 SUB  11 WETF  Yld =  6620.4 BIOM =   6620.4
  HRU     282 SUB  11 WATR  Yld =     0.0 BIOM =      0.0
  HRU     283 SUB  11 BERM  Yld =  8152.1 BIOM =  11524.8
  HRU     284 SUB  11 BERM  Yld =  8230.0 BIOM =  11649.8
  HRU     285 SUB  11 BERM  Yld = 10664.1 BIOM =  15303.5
  HRU     286 SUB  12 AGRL  Yld =  3819.2 BIOM =  11437.0
  HRU     287 SUB  12 AGRL  Yld =  3750.6 BIOM =  11179.5
  HRU     288 SUB  12 AGRL  Yld =  2036.5 BIOM =   6196.7
  HRU     289 SUB  12 AGRL  Yld =  4884.6 BIOM =  14041.3
  HRU     290 SUB  12 AGRL  Yld =  4035.3 BIOM =  11972.5
  HRU     291 SUB  12 AGRL  Yld =  2394.0 BIOM =   7337.7
  HRU     292 SUB  12 PAST  Yld =  4360.0 BIOM =   6088.1
  HRU     293 SUB  12 PAST  Yld =  5144.2 BIOM =   7186.5
  HRU     294 SUB  12 PAST  Yld =  3000.2 BIOM =   4181.0
[...]
   1618  66   MBRW06     .900E-02   72.51   63.20    2.41    0.00   87.99    0.00    0.20  854.70  151.67  141.97  520.19    8.39    2.64   17.21    9.05    6.44  151.67
   1619  66   MBRW08     .207E-01   72.51  531.20    0.11    0.00   57.48    0.00    0.20  854.70   63.99    0.00  662.71    0.23    0.68    0.80   15.31   10.67   63.99
   1620  66   MBRW11     .486E-01   72.51   61.80    0.26    0.00  109.71    0.00    0.20  854.70  126.31  148.84  515.65    0.33    1.89    3.07   10.05    7.13  126.31
   1621  67   MBRW02     .316E+00   67.60  588.80    0.15    0.00   36.60    0.00    0.20  854.70    6.22    1.56  659.95    0.05    0.02    0.18   14.20    4.94    6.22
   1622  67   MBRW03     .297E-01   72.87  230.70    0.31    0.00   45.38    0.00    0.20  854.70   80.78   18.66  614.32    0.52    0.14    1.77   11.41    3.81   80.78
   1623  67   MBRW06     .540E-02   76.38   63.20    0.29    0.00   65.26    0.00    0.20  854.70  143.22  115.56  544.96    0.95    0.32    3.55    6.20    2.04  143.22
   1624  67   MBRW07     .162E-01   76.38   66.80    0.15    0.00   60.45    0.00    0.20  854.70  145.49  115.92  537.88    0.44    0.28    5.09    7.00    2.28  145.49
   1625  67   MBRW08     .375E+00   76.38  531.20    0.17    0.00   32.55    0.00    0.20  854.70   20.71    0.00  651.82    0.22    0.03    1.03   14.04    4.89   20.71
   1626  67   MBRW09     .537E+00   76.38  247.50    0.15    0.00   47.44    0.00    0.20  854.70   78.24    8.16  619.69    0.66    0.09    2.58   11.98    4.04   78.24
   1627  67   MBRW14     .630E-02   76.38  104.50    0.35    0.00   54.81    0.00    0.20  854.70  139.02   72.23  575.18    2.98    0.41   12.01    7.33    2.39  139.02
   1628  67   MBRW02     .335E+00   60.58  588.80    0.36    0.00    0.00    0.00    0.20  854.70    0.78    6.09  694.59    0.01    0.02    0.02    9.18    6.48    0.78
   1629  67   MBRW03     .355E+00   69.35  230.70    0.23    0.00    0.00    0.00    0.20  854.70   64.32   18.55  631.02    0.26    0.03    0.96    6.09    4.36   64.32
   1630  67   MBRW04     .963E-01   69.35  314.70    0.30    0.00    0.00    0.00    0.20  854.70   33.44    1.68  675.79    0.60    0.05    2.45    7.19    5.15   33.44
   1631  67   MBRW05     .282E+00   69.35  609.00    0.89    0.00    0.00    0.00    0.20  854.70    8.40    6.16  715.85    0.22    0.03    0.75    8.38    5.93    8.40
   1632  67   MBRW06     .131E+01   73.74   63.20    0.82    0.00    0.00    0.00    0.20  854.70  123.19  130.97  547.91    4.31    0.13   10.93    4.19    3.01  123.19
   1633  67   MBRW07     .918E-01   73.74   66.80    0.24    0.00    0.00    0.00    0.20  854.70  124.50  127.17  545.15    0.62    0.05    6.51    4.93    3.54  124.50
   1634  67   MBRW08     .104E+01   73.74  531.20    0.26    0.00    0.00    0.00    0.20  854.70   15.20    0.01  685.40    0.10    0.01    0.48    9.14    6.47   15.20
   1635  67   MBRW09     .621E+00   73.74  247.50    0.17    0.00    0.00    0.00    0.20  854.70   62.59    8.18  636.56    0.48    0.02    1.77    6.45    4.61   62.59
   1636  67   MBRW11     .135E-01   73.74   61.80    1.31    0.00    0.00    0.00    0.20  854.70   86.78  213.00  495.47    1.87    0.84   17.18    3.32    2.38   86.78
   1637  67   MBRW14     .200E+00   73.74  104.50    0.20    0.00    0.00    0.00    0.20  854.70  120.41   81.31  583.02    1.41    0.06    6.20    4.67    3.35  120.42
   1638  67   MBRW02     .135E-01   48.28  588.80    0.44    0.00    0.00    0.00    0.20  854.70    0.00    7.05  703.12    0.00    0.02    0.00   13.22    0.00    0.00
   1639  67   MBRW03     .900E-03   61.45  230.70    0.87    0.00    0.00    0.00    0.20  854.70   37.74   27.93  639.76    0.00    0.06    0.01   10.82    0.00   37.74
   1640  67   MBRW05     .540E-02   61.45  609.00    0.36    0.00    0.00    0.00    0.20  854.70    1.17    1.62  719.96    0.00    0.01    0.00   12.62    0.00    1.17
   1641  67   MBRW06     .171E-01   67.60   63.20    1.79    0.00    0.00    0.00    0.20  854.70   80.58  157.82  555.35    0.88    0.17    1.68    7.78    0.00   80.58
   1642  67   MBRW07     .900E-03   67.60   66.80    0.27    0.00    0.00    0.00    0.20  854.70   82.01  151.26  554.02    0.07    0.02    0.69    8.50    0.00   82.01
   1643  67   MBRW11     .990E-02   67.60   61.80    1.92    0.00    0.00    0.00    0.20  854.70   53.40  238.66  496.78    0.07    0.93    0.58    7.64    0.00   53.40
   1644  67   MBRW02     .972E-01   57.94  588.80    0.38    0.00    0.00    0.00    0.20  854.70    0.13    6.31  699.18    0.00    0.03    0.00   11.43    8.00    0.13
   1645  67   MBRW03     .630E-02   67.60  230.70    0.24    0.00    0.00    0.00    0.20  854.70   57.17   20.15  634.21    0.01    0.06    0.04    8.80    6.16   57.17
   1646  67   MBRW04     .333E-01   67.60  314.70    0.75    0.00    0.00    0.00    0.20  854.70   26.84    3.32  681.03    0.02    0.27    0.09    8.78    6.15   26.84
   1647  67   MBRW05     .630E-01   67.60  609.00    2.65    0.00    0.00    0.00    0.20  854.70    6.20   12.65  708.44    0.01    0.06    0.03   10.80    7.56    6.20
   1648  67   MBRW06     .239E+00   72.87   63.20    1.20    0.00    0.00    0.00    0.20  854.70  112.49  138.62  548.68    1.60    0.21    3.16    5.97    4.18  112.50
   1649  67   MBRW11     .801E-01   72.87   61.80    0.72    0.00    0.00    0.00    0.20  854.70   84.48  180.91  520.29    0.24    0.48    2.11    6.49    4.54   84.48
   1650  67   MBRW02     .657E-01   57.94  588.80    0.50    0.00    0.00    0.00    0.20  854.70    0.13    7.71  697.05    0.01    0.05    0.02   10.61   10.61    0.13
   1651  67   MBRW05     .244E+00   67.60  609.00    0.93    0.00    0.00    0.00    0.20  854.70    6.20    6.37  715.49    1.28    0.03    2.70    9.97    9.97    6.20
   1652  67   MBRW06     .531E-01   72.87   63.20    0.90    0.00    0.00    0.00    0.20  854.70  115.76  132.53  552.19    9.23    0.10   18.79    5.18    5.18  115.76
   1653  67   MBRW11     .729E-01   72.87   61.80    1.08    0.00    0.00    0.00    0.20  854.70   81.86  209.44  502.54    4.90    0.88   35.69    5.21    5.21   81.86
   1654  67   MBRW15     .414E-01   80.77    0.25    0.82    0.00    0.00    0.00    0.20  854.70    0.00    0.00 1363.49    0.00    0.00    0.00    0.00    0.00    0.00
   1655  67   MBRW02     .162E-01   56.88  588.80    0.36    0.00   61.46    0.00    0.20  854.70   52.29    5.45  672.64    0.79    0.75    1.85   15.71   10.94   52.29
   1656  67   MBRW03     .216E-01   67.04  230.70    0.38    0.00   68.43    0.00    0.20  854.70   96.40   13.79  609.50    0.47    0.76    1.28   11.51    8.14   96.40
   1657  67   MBRW04     .810E-02   67.04  314.70    0.78    0.00   52.12    0.00    0.20  854.70   72.11    5.28  654.36    2.58    0.78    7.11   11.64    8.22   72.11
   1658  67   MBRW05     .990E-02   67.04  609.00    1.76    0.00   66.65    0.00    0.20  854.70   57.29    8.92  689.74    3.02    0.87    7.03   15.19   10.58   57.29
   1659  67   MBRW06     .261E-01   72.51   63.20    0.65    0.00   88.26    0.00    0.20  854.70  154.53  113.91  535.74    2.15    1.02    6.06    9.47    6.72  154.54
   1660  67   MBRW07     .270E-02   72.51   66.80    0.18    0.00   82.18    0.00    0.20  854.70  155.38  112.66  531.69    0.57    0.65    3.37    9.94    7.05  155.38
   1661  67   MBRW08     .774E-01   72.51  531.20    0.18    0.00   57.48    0.00    0.20  854.70   63.99    0.00  662.70    0.43    0.67    1.59   15.31   10.67   63.99
   1662  67   MBRW09     .666E-01   72.51  247.50    0.13    0.00   69.79    0.00    0.20  854.70   96.15    1.73  616.34    0.33    0.71    1.09   12.04    8.50   96.15
   1663  68   MBRW02     .394E+00   67.60  588.80    0.14    0.00   36.60    0.00    0.20  854.70    6.22    1.38  660.02    0.04    0.02    0.17   14.20    4.94    6.22
   1664  68   MBRW05     .108E-01   72.87  609.00    1.67    0.00   44.20    0.00    0.20  854.70   14.06    9.46  681.79    1.14    0.17    3.14   14.24    4.96   14.06
   1665  68   MBRW06     .900E-02   76.38   63.20    0.21    0.00   65.28    0.00    0.20  854.70  143.24  115.41  545.11    0.69    0.30    2.68    6.20    2.04  143.24
   1666  68   MBRW07     .263E+00   76.38   66.80    0.16    0.00   60.45    0.00    0.20  854.70  145.48  115.94  537.88    0.64    0.29    7.51    7.00    2.28  145.48
   1667  68   MBRW08     .918E-01   76.38  531.20    0.11    0.00   32.55    0.00    0.20  854.70   20.71    0.00  651.84    0.09    0.03    0.50   14.04    4.89   20.71
   1668  68   MBRW02     .873E-01   60.58  588.80    0.40    0.00    0.00    0.00    0.20  854.70    0.78    6.57  694.42    0.01    0.02    0.02    9.17    6.48    0.78
   1669  68   MBRW03     .990E-02   69.35  230.70    0.78    0.00    0.00    0.00    0.20  854.70   62.55   26.37  626.48    0.84    0.11    2.49    6.04    4.33   62.55
   1670  68   MBRW05     .116E+00   69.35  609.00    1.79    0.00    0.00    0.00    0.20  854.70    8.40    9.81  713.89    0.41    0.05    1.22    8.35    5.92    8.40
   1671  68   MBRW06     .243E-01   73.74   63.20    1.63    0.00    0.00    0.00    0.20  854.70  121.06  152.63  535.74    5.99    0.52   13.32    4.27    3.06  121.06
   1672  68   MBRW07     .333E-01   73.74   66.80    0.38    0.00    0.00    0.00    0.20  854.70  124.43  127.62  544.87    1.04    0.06    9.73    4.93    3.54  124.43
   1673  68   MBRW08     .900E-03   73.74  531.20    0.13    0.00    0.00    0.00    0.20  854.70   15.20    0.00  685.44    0.02    0.01    0.09    9.14    6.47   15.20
   1674  68   MBRW05     .630E-02   61.45  609.00    2.40    0.00    0.00    0.00    0.20  854.70    1.17   76.98  690.74    0.00    0.20    0.00   12.13    0.00    1.17
   1675  68   MBRW06     .495E-01   67.60   63.20    2.51    0.00    0.00    0.00    0.20  854.70   80.46  159.38  554.34    1.39    0.20    2.38    7.75    0.00   80.46
   1676  68   MBRW05     .261E-01   67.60  609.00    1.73    0.00    0.00    0.00    0.20  854.70    6.20    9.67  710.05    0.00    0.05    0.02   10.82    7.57    6.20
   1677  68   MBRW06     .153E-01   72.87   63.20    2.26    0.00    0.00    0.00    0.20  854.70  110.17  164.12  534.64    2.16    0.76    3.95    5.66    3.96  110.17
   1678  68   MBRW07     .810E-02   72.87   66.80    0.17    0.00    0.00    0.00    0.20  854.70  114.15  133.41  546.61    0.11    0.08    1.07    6.65    4.65  114.15
   1679  68   MBRW05     .981E-01   67.60  609.00    2.14    0.00    0.00    0.00    0.20  854.70    6.20   10.96  713.06    2.64    0.05    4.64    9.92    9.92    6.20
   1680  68   MBRW06     .117E-01   72.87   63.20    3.35    0.00    0.00    0.00    0.20  854.70  108.65  197.52  515.28   28.64    1.37   39.81    4.41    4.41  108.65
   1681  68   MBRW07     .810E-02   72.87   66.80    0.18    0.00    0.00    0.00    0.20  854.70  117.61  130.56  547.88    1.35    0.05   12.43    5.77    5.77  117.61
   1682  68   MBRW15     .720E-02   80.77    0.25    0.93    0.00    0.00    0.00    0.20  854.70    0.00    0.00 1363.48    0.00    0.00    0.00    0.00    0.00    0.00
   1683  68   MBRW02     .900E-03   56.88  588.80    0.13    0.00   61.41    0.00    0.20  854.70   52.29    1.07  674.38    0.55    0.72    0.49   15.74   10.96   52.29
   1684  68   MBRW06     .900E-02   72.51   63.20    0.31    0.00   88.27    0.00    0.20  854.70  154.66  112.79  536.57    0.88    0.93    2.52    9.49    6.73  154.66
   1685  68   MBRW08     .540E-02   72.51  531.20    0.12    0.00   57.48    0.00    0.20  854.70   63.99    0.00  662.73    0.31    0.68    0.76   15.31   10.67   63.99
   1686  69   MBRW02     .702E-01   67.60  588.80    0.67    0.00   36.63    0.00    0.20  854.70    6.21    9.75  657.29    0.24    0.08    0.69   14.16    4.93    6.21
   1687  69   MBRW05     .720E-02   72.87  609.00    1.58    0.00   44.19    0.00    0.20  854.70   14.06    9.13  681.95    1.03    0.16    2.90   14.25    4.96   14.06
   1688  69   MBRW07     .900E-03   76.38   66.80    0.13    0.00   60.46    0.00    0.20  854.70  145.49  115.88  537.94    0.25    0.28    2.96    7.00    2.29  145.49
   1689  69   MBRW02     .324E-01   60.58  588.80    0.46    0.00    0.00    0.00    0.20  854.70    0.78    7.28  694.15    0.01    0.02    0.02    9.17    6.47    0.78
   1690  69   MBRW05     .747E-01   69.35  609.00    0.70    0.00    0.00    0.00    0.20  854.70    8.40    2.59  717.54    0.13    0.02    0.51    8.41    5.95    8.40
   1691  69   MBRW07     .495E-01   73.74   66.80    0.29    0.00    0.00    0.00    0.20  854.70  124.49  127.21  545.12    0.70    0.05    7.26    4.93    3.54  124.49
   1692  69   MBRW05     .630E-02   67.60  609.00    1.18    0.00    0.00    0.00    0.20  854.70    6.20    7.51  711.20    0.00    0.04    0.01   10.84    7.58    6.20
   1693  69   MBRW05     .810E-02   67.60  609.00    0.78    0.00    0.00    0.00    0.20  854.70    6.20    5.61  715.92    0.71    0.03    1.73    9.98    9.98    6.20



                AVE MONTHLY BASIN VALUES
                   SNOW                      WATER               SED
  MON     RAIN     FALL   SURF Q    LAT Q    YIELD       ET    YIELD      PET
          (MM)     (MM)     (MM)     (MM)     (MM)     (MM)   (T/HA)     (MM)
    1    50.80    21.07     0.08     0.32     0.40    21.34     0.00    36.72
    2    65.20    11.29     2.26     0.61     3.44    24.96     0.17    29.83
    3    77.00     0.00     2.50     1.18     7.86    70.47     0.07    80.92
    4    60.30     0.00     0.08     0.76     3.35    62.58     0.00   109.77
    5    24.30     0.00     0.04     0.69     1.59    96.43     0.00   190.95
    6    67.60     0.00     0.14     0.69     1.12    98.25     0.00   213.43
    7    33.00     0.00     0.04     0.57     0.74    49.57     0.00   207.04
    8    13.00     0.00     0.01     0.27     0.34    20.93     0.00   242.34
    9    66.60     0.00     0.11     0.37     0.51    32.74     0.00   159.36
   10   165.40     0.00    14.21     1.99    22.56    53.22     0.11    91.73
   11   128.50     0.00    10.66     1.98    21.56    41.96     0.24    54.14
   12   103.00     3.20    38.43     2.58    63.32    40.83     0.67    52.23

     AVE ANNUAL BASIN STRESS DAYS
               WATER STRESS DAYS =    50.25
               TEMPERATURE STRESS DAYS =     9.24
               NITROGEN STRESS DAYS =    40.94
               PHOSPHORUS STRESS DAYS =     0.00
               AERATION STRESS DAYS =     0.00
1
    SWAT Dec 23 2016    VER 2016/Rev 664                                            

    General Input/Output section (file.cio):                                        
    4/9/2015 12:00:00 AM ARCGIS-SWAT interface AV                                   
                                                                                    
         AVE ANNUAL BASIN VALUES

              PRECIP =    854.7 MM
              SNOW FALL =   35.55 MM
              SNOW MELT =    35.55 MM
              SUBLIMATION =     0.00 MM
              SURFACE RUNOFF Q =    68.57 MM
              LATERAL SOIL Q =   12.01 MM
              TILE Q =     0.00 MM
              GROUNDWATER (SHAL AQ) Q =    45.31 MM
              GROUNDWATER (DEEP AQ) Q =     0.91 MM
              REVAP (SHAL AQ => SOIL/PLANTS) =  318.20 MM
              DEEP AQ RECHARGE =     2.40 MM
              TOTAL AQ RECHARGE =   48.03 MM
              TOTAL WATER YLD =   126.80 MM
              PERCOLATION OUT OF SOIL =   62.31 MM
              ET =    613.3 MM
              PET =   1468.4MM
              TRANSMISSION LOSSES =     0.00 MM
              SEPTIC INFLOW =       0.00 MM
              TOTAL SEDIMENT LOADING =      1.27 T/HA
              TILE FROM IMPOUNDED WATER =     0.000 (MM)
              EVAPORATION FROM IMPOUNDED WATER =     0.000 (MM)
              SEEPAGE INTO SOIL FROM IMPOUNDED WATER =    0.000 (MM)
              OVERFLOW FROM IMPOUNDED WATER =    0.000 (MM)
1
    SWAT Dec 23 2016    VER 2016/Rev 664                                            

    General Input/Output section (file.cio):                                        
    4/9/2015 12:00:00 AM ARCGIS-SWAT interface AV                                   
                                                                                    
              AVE ANNUAL BASIN VALUES


              NUTRIENTS
                   ORGANIC N =     5.439 (KG/HA)
                   ORGANIC P =     0.680 (KG/HA)
                   NO3 YIELD (SQ) =     0.059 (KG/HA)
                   NO3 YIELD (LAT) =    0.100 (KG/HA)
                   NO3 YIELD (TILE) =    0.000 (KG/HA)
                   SOLP YIELD (TILE) =    0.000(KG/HA)
                   SOLP YIELD (SURF INLET RISER) =    0.000 (KG/HA)
                   SOL P YIELD =    0.019 (KG/HA)
                   NO3 LEACHED =     6.493 (KG/HA)
                   P LEACHED =     0.023 (KG/HA)
                   N UPTAKE =    61.039 (KG/HA)
                   P UPTAKE =   14.324 (KG/HA)
                   NO3 YIELD (GWQ) =     0.036 (KG/HA)
                   ACTIVE TO SOLUTION P FLOW =         2.934 (KG/HA)
                   ACTIVE TO STABLE P FLOW =        37.782 (KG/HA)
                   N FERTILIZER APPLIED =    10.831 (KG/HA)
                   P FERTILIZER APPLIED =     0.000 (KG/HA)
                   N FIXATION =     0.000 (KG/HA)
                   DENITRIFICATION =     0.000 (KG/HA)
                   HUMUS MIN ON ACTIVE ORG N =     9.002 (KG/HA)
                   ACTIVE TO STABLE ORG N =    -0.692 (KG/HA)
                   HUMUS MIN ON ACTIVE ORG P =    1.544 (KG/HA)
                   MIN FROM FRESH ORG N =    8.798 (KG/HA)
                   MIN FROM FRESH ORG P =    2.334 (KG/HA)
                   NO3 IN RAINFALL =     0.000 (KG/HA)
                   INITIAL NO3 IN SOIL =      50.891 (KG/HA)
                   FINAL NO3 IN SOIL =         9.881 (KG/HA)
                   INITIAL ORG N IN SOIL =    9808.160 (KG/HA)
                   FINAL ORG N IN SOIL =      9801.072 (KG/HA)
                   INITIAL MIN P IN SOIL =    2689.961 (KG/HA)
                   FINAL MIN P IN SOIL =      2678.064 (KG/HA)
                   INITIAL ORG P IN SOIL =    1201.499 (KG/HA)
                   FINAL ORG P IN SOIL =    1201.327 (KG/HA)
                   NO3 IN FERT =    10.831 (KG/HA)
                   AMMONIA IN FERT =     0.000 (KG/HA)
                   ORG N IN FERT =     0.000 (KG/HA)
                   MINERAL P IN FERT =     0.000 (KG/HA)
                   ORG P IN FERT =     0.000 (KG/HA)
                   N REMOVED IN YIELD =    46.601 (KG/HA)
                   P REMOVED IN YIELD =    10.397 (KG/HA)
                   AMMONIA VOLATILIZATION =     0.000 (KG/HA)
                   AMMONIA NITRIFICATION =      0.000 (KG/HA)
                   NO3 EVAP-LAYER 2 TO 1 =    2.668

                   DIE-GRO P Q =           0.0 (No/M2)
                   DIE-GRO LP Q =           0.0 (No/M2)
                   DIE-GRO P SED =          0.0 (No/M2)
                   DIE-GRO LP SED =          0.0 (No/M2)
                   BACT P RUNOFF =          0.0 (No/M2)
                   BACT LP RUNOFF =          0.0 (No/M2)
                   BACT P SEDIMENT =          0.0 (No/M2)
                   BACT LP SEDIMENT =          0.0 (No/M2)
                   BACT P INCORP =          0.0 (No/M2)
                   BACT LP INCORP =          0.0 (No/M2)

                   NITRATE SEPTIC =         0.00 (kg/ha)
                   AMMONIA SEPTIC =         0.00 (kg/ha)
                   ORG N SEPTIC =         0.00 (kg/ha)
                   FRESH ORGN SEPTIC =         0.00 (kg/ha)
                   ORG P SEPTIC =         0.00 (kg/ha)
                   FRESH ORGP SEPTIC =         0.00 (kg/ha)
                   SOL P SEPTIC =         0.00 (kg/ha)
                   BOD SEPTIC =         0.00 (kg/ha)
